201
-1227.89516
C    -0.916000000     3.304000000     4.185000000
H    -1.233000000     4.131000000     3.556000000
C     0.367000000     2.834000000     3.982000000
C     0.732000000     1.788000000     4.862000000
H     1.704000000     1.307000000     4.785000000
C     1.185000000     3.184000000     2.725000000
O     0.912000000     4.484000000     2.302000000
H     1.003000000     2.541000000     1.851000000
O     2.579000000     3.018000000     3.024000000
C     3.397000000     2.331000000     2.081000000
C     3.826000000     0.997000000     2.279000000
H     3.506000000     0.466000000     3.172000000
C     4.437000000     0.328000000     1.229000000
O     4.619000000    -1.085000000     1.397000000
C     4.721000000     0.981000000    -0.032000000
C     5.441000000     0.206000000    -1.117000000
H     6.137000000     0.874000000    -1.629000000
C     4.374000000    -0.493000000    -1.957000000
C     3.867000000     0.096000000    -3.144000000
H     4.430000000     0.954000000    -3.502000000
H     6.098000000    -0.527000000    -0.644000000
C     4.398000000     2.311000000    -0.158000000
H     4.725000000     2.775000000    -1.085000000
C     3.707000000     3.011000000     0.847000000
C     3.265000000     4.435000000     0.582000000
H     3.962000000     4.916000000    -0.107000000
H     3.366000000     4.970000000     1.528000000
C     1.866000000     4.539000000     0.007000000
C     1.643000000     4.603000000    -1.402000000
H     2.452000000     4.496000000    -2.121000000
C     0.753000000     4.640000000     0.924000000
C    -0.512000000     4.589000000     0.443000000
H    -1.322000000     4.330000000     1.121000000
C    -0.725000000     4.678000000    -0.972000000
O    -2.004000000     4.483000000    -1.469000000
C    -2.450000000     3.142000000    -1.749000000
C    -3.896000000     2.822000000    -1.242000000
C    -4.614000000     1.810000000    -1.819000000
H    -4.254000000     1.281000000    -2.697000000
C    -4.351000000     3.349000000     0.000000000
H    -3.838000000     4.180000000     0.478000000
O    -2.477000000     2.862000000    -3.159000000
H    -1.798000000     2.464000000    -1.179000000
C     0.339000000     4.648000000    -1.914000000
C     0.077000000     4.315000000    -3.406000000
H     0.981000000     4.593000000    -3.951000000
H    -0.736000000     4.885000000    -3.859000000
C    -0.037000000     2.828000000    -3.609000000
C     1.113000000     2.122000000    -3.972000000
H     2.031000000     2.702000000    -4.029000000
C    -1.323000000     2.297000000    -3.756000000
C    -1.395000000     0.881000000    -4.092000000
H    -2.348000000     0.363000000    -4.163000000
C    -0.231000000     0.238000000    -4.568000000
O    -0.281000000    -1.091000000    -4.884000000
C     0.092000000    -1.989000000    -3.830000000
C    -0.870000000    -3.184000000    -3.671000000
C    -2.272000000    -2.976000000    -3.742000000
H    -2.735000000    -2.012000000    -3.936000000
C    -0.415000000    -4.462000000    -3.463000000
H     0.654000000    -4.558000000    -3.292000000
O     1.429000000    -2.456000000    -4.173000000
H     0.139000000    -1.388000000    -2.910000000
C     1.006000000     0.856000000    -4.537000000
C     2.308000000     0.201000000    -5.007000000
H     3.012000000     0.972000000    -5.327000000
H     2.162000000    -0.585000000    -5.751000000
C     2.903000000    -0.550000000    -3.860000000
C     2.505000000    -1.837000000    -3.533000000
C     3.120000000    -2.549000000    -2.487000000
H     2.882000000    -3.585000000    -2.259000000
C     3.943000000    -1.792000000    -1.633000000
O     4.336000000    -2.422000000    -0.513000000
C     3.733000000    -1.985000000     0.753000000
H     2.782000000    -1.516000000     0.459000000
C     3.287000000    -3.109000000     1.663000000
C     3.227000000    -3.000000000     3.086000000
H     3.589000000    -2.087000000     3.553000000
C     2.719000000    -4.279000000     1.073000000
H     2.754000000    -4.372000000    -0.009000000
C     2.153000000    -5.286000000     1.897000000
O     1.554000000    -6.401000000     1.334000000
C     2.061000000    -5.063000000     3.301000000
H     1.619000000    -5.918000000     3.805000000
C     2.552000000    -3.905000000     3.901000000
O     2.240000000    -3.724000000     5.232000000
C     2.472000000    -2.510000000     5.806000000
C     1.313000000    -1.730000000     6.017000000
H     0.329000000    -2.133000000     5.791000000
C     3.736000000    -2.169000000     6.348000000
H     4.524000000    -2.915000000     6.276000000
C     3.808000000    -0.960000000     7.045000000
H     4.729000000    -0.606000000     7.501000000
C     2.668000000    -0.094000000     7.033000000
H     2.778000000     0.886000000     7.492000000
C     1.445000000    -0.517000000     6.537000000
O     0.279000000     0.227000000     6.698000000
C    -0.023000000     1.401000000     5.980000000
C    -1.296000000     1.868000000     6.073000000
H    -2.011000000     1.436000000     6.769000000
C    -1.792000000     2.861000000     5.227000000
O    -2.988000000     3.476000000     5.457000000
C    -3.642000000     4.213000000     4.474000000
C    -4.404000000     3.473000000     3.558000000
H    -4.379000000     2.396000000     3.703000000
C    -3.617000000     5.618000000     4.461000000
H    -3.111000000     6.137000000     5.271000000
C    -4.343000000     6.310000000     3.461000000
H    -4.316000000     7.392000000     3.358000000
C    -5.122000000     5.567000000     2.555000000
H    -5.732000000     6.081000000     1.816000000
C    -5.199000000     4.200000000     2.674000000
O    -5.952000000     3.521000000     1.760000000
C    -5.500000000     2.931000000     0.546000000
C    -6.244000000     1.994000000    -0.112000000
H    -7.136000000     1.648000000     0.404000000
C    -5.802000000     1.308000000    -1.270000000
O    -6.605000000     0.388000000    -1.872000000
C    -6.015000000    -0.458000000    -2.827000000
C    -5.491000000    -1.689000000    -2.468000000
H    -5.556000000    -2.025000000    -1.436000000
C    -6.082000000    -0.072000000    -4.113000000
H    -6.536000000     0.889000000    -4.343000000
C    -5.645000000    -0.888000000    -5.116000000
H    -5.628000000    -0.529000000    -6.142000000
C    -5.165000000    -2.156000000    -4.823000000
H    -4.715000000    -2.726000000    -5.632000000
C    -5.128000000    -2.593000000    -3.518000000
O    -4.523000000    -3.781000000    -3.275000000
C    -3.103000000    -4.017000000    -3.429000000
C    -2.602000000    -5.339000000    -3.104000000
H    -3.281000000    -6.152000000    -2.860000000
C    -1.230000000    -5.539000000    -3.242000000
O    -0.594000000    -6.731000000    -2.980000000
C     0.448000000    -6.943000000    -2.114000000
C     1.436000000    -7.771000000    -2.613000000
H     1.387000000    -8.173000000    -3.622000000
C     2.569000000    -8.020000000    -1.795000000
H     3.309000000    -8.749000000    -2.117000000
C     2.600000000    -7.543000000    -0.461000000
H     3.396000000    -7.673000000     0.268000000
C     1.512000000    -6.816000000     0.005000000
C     0.440000000    -6.502000000    -0.819000000
H    -0.387000000    -5.956000000    -0.374000000
O    -3.370000000    -7.494000000     0.730000000
H    -4.046000000    -6.875000000     0.456000000
H    -3.090000000    -7.919000000    -0.081000000
O    -2.799000000    -3.444000000     4.845000000
H    -2.552000000    -2.672000000     5.354000000
H    -3.501000000    -3.139000000     4.271000000
O    -3.358000000    -5.120000000     7.027000000
H    -3.242000000    -4.779000000     6.140000000
H    -2.612000000    -4.771000000     7.516000000
O    -5.472000000    -3.004000000     3.600000000
H    -5.097000000    -2.457000000     2.910000000
H    -5.195000000    -3.893000000     3.379000000
O    -4.643000000    -5.156000000    -0.254000000
H    -4.967000000    -4.619000000    -0.978000000
H    -4.101000000    -4.559000000     0.262000000
O    -5.989000000    -7.034000000    -2.018000000
H    -5.743000000    -6.352000000    -1.392000000
H    -6.939000000    -7.103000000    -1.936000000
O    -1.101000000    -7.473000000     2.367000000
H    -0.768000000    -6.577000000     2.422000000
H    -1.685000000    -7.465000000     1.609000000
O    -2.385000000    -1.168000000     6.189000000
H    -3.266000000    -0.968000000     6.506000000
H    -1.851000000    -1.222000000     6.982000000
O    -3.163000000    -7.605000000     4.743000000
H    -2.630000000    -7.799000000     3.972000000
H    -3.728000000    -6.883000000     4.468000000
O    -6.649000000    -2.111000000     0.757000000
H    -5.772000000    -1.826000000     1.013000000
H    -6.645000000    -3.057000000     0.903000000
O    -7.579000000    -4.677000000    -0.115000000
H    -8.261000000    -5.248000000     0.238000000
H    -7.722000000    -4.689000000    -1.062000000
O    -7.909000000    -5.267000000     5.314000000
H    -8.323000000    -5.842000000     4.672000000
H    -7.753000000    -4.450000000     4.840000000
O    -1.243000000    -4.719000000     2.168000000
H    -1.281000000    -4.270000000     3.012000000
H    -2.096000000    -4.550000000     1.768000000
O    -8.420000000     1.586000000     3.024000000
H    -8.726000000     2.041000000     2.240000000
H    -7.574000000     1.215000000     2.772000000
O    -4.924000000    -5.945000000     3.300000000
H    -5.541000000    -6.674000000     3.370000000
H    -4.852000000    -5.783000000     2.360000000
O    -9.314000000    -1.877000000     0.393000000
H    -9.287000000    -2.112000000     1.320000000
H    -8.406000000    -1.953000000     0.100000000
O    -6.195000000    -1.165000000     5.420000000
H    -5.943000000    -1.750000000     4.704000000
H    -5.372000000    -0.963000000     5.865000000
O    -5.793000000     0.375000000     2.925000000
H    -4.996000000    -0.076000000     2.645000000
H    -6.490000000    -0.268000000     2.795000000
O     1.074000000    -0.996000000     2.951000000
H     0.573000000    -1.111000000     2.143000000
H     0.415000000    -1.010000000     3.645000000
