201
-1282.48633
C    -1.839000000     2.524000000     4.125000000
H    -2.450000000     3.151000000     3.481000000
C    -0.514000000     2.258000000     3.995000000
C     0.040000000     1.250000000     4.778000000
H     1.103000000     1.029000000     4.721000000
C     0.323000000     2.831000000     2.883000000
O     0.005000000     4.208000000     2.614000000
H     0.142000000     2.311000000     1.931000000
O     1.687000000     2.911000000     3.281000000
C     2.661000000     2.549000000     2.365000000
C     3.193000000     1.264000000     2.499000000
H     2.853000000     0.719000000     3.376000000
C     4.159000000     0.753000000     1.622000000
O     4.619000000    -0.520000000     1.746000000
C     4.515000000     1.520000000     0.521000000
C     5.461000000     1.021000000    -0.544000000
H     5.890000000     1.917000000    -0.999000000
C     4.748000000     0.194000000    -1.581000000
C     4.158000000     0.865000000    -2.663000000
H     4.401000000     1.922000000    -2.735000000
H     6.395000000     0.578000000    -0.191000000
C     3.960000000     2.847000000     0.412000000
H     4.316000000     3.429000000    -0.435000000
C     3.060000000     3.359000000     1.383000000
C     2.446000000     4.732000000     1.244000000
H     3.084000000     5.383000000     0.643000000
H     2.348000000     5.189000000     2.231000000
C     1.113000000     4.667000000     0.496000000
C     1.041000000     4.850000000    -0.890000000
H     1.947000000     4.959000000    -1.481000000
C    -0.062000000     4.478000000     1.278000000
C    -1.249000000     4.450000000     0.651000000
H    -2.147000000     4.255000000     1.232000000
C    -1.280000000     4.404000000    -0.712000000
O    -2.555000000     4.057000000    -1.254000000
C    -2.656000000     2.679000000    -1.636000000
C    -4.039000000     2.151000000    -1.258000000
C    -4.633000000     1.103000000    -2.063000000
H    -4.093000000     0.760000000    -2.942000000
C    -4.701000000     2.565000000    -0.117000000
H    -4.246000000     3.295000000     0.548000000
O    -2.471000000     2.644000000    -3.108000000
H    -1.928000000     2.014000000    -1.149000000
C    -0.199000000     4.737000000    -1.529000000
C    -0.233000000     4.621000000    -3.036000000
H     0.559000000     5.223000000    -3.487000000
H    -1.182000000     5.062000000    -3.351000000
C    -0.055000000     3.170000000    -3.524000000
C     1.162000000     2.773000000    -4.026000000
H     2.050000000     3.395000000    -3.961000000
C    -1.177000000     2.335000000    -3.574000000
C    -1.018000000     1.085000000    -4.167000000
H    -1.915000000     0.478000000    -4.079000000
C     0.207000000     0.589000000    -4.579000000
O     0.317000000    -0.735000000    -4.947000000
C     0.787000000    -1.659000000    -4.007000000
C     0.032000000    -3.019000000    -3.908000000
C    -1.383000000    -2.904000000    -4.046000000
H    -1.893000000    -1.968000000    -4.262000000
C     0.574000000    -4.198000000    -3.551000000
H     1.659000000    -4.270000000    -3.529000000
O     2.227000000    -1.872000000    -4.252000000
H     0.619000000    -1.135000000    -3.054000000
C     1.330000000     1.464000000    -4.487000000
C     2.636000000     0.818000000    -4.771000000
H     3.309000000     1.574000000    -5.180000000
H     2.597000000     0.092000000    -5.586000000
C     3.313000000     0.187000000    -3.572000000
C     3.052000000    -1.190000000    -3.386000000
C     3.608000000    -1.866000000    -2.328000000
H     3.496000000    -2.932000000    -2.146000000
C     4.425000000    -1.135000000    -1.439000000
O     4.759000000    -1.677000000    -0.190000000
C     3.849000000    -1.410000000     0.908000000
H     2.869000000    -0.993000000     0.632000000
C     3.423000000    -2.681000000     1.661000000
C     3.203000000    -2.571000000     3.013000000
H     3.321000000    -1.593000000     3.472000000
C     3.371000000    -3.936000000     1.071000000
H     3.719000000    -4.002000000     0.043000000
C     2.980000000    -5.086000000     1.749000000
O     2.833000000    -6.260000000     1.110000000
C     2.820000000    -5.010000000     3.182000000
H     2.572000000    -5.870000000     3.799000000
C     2.938000000    -3.724000000     3.764000000
O     2.924000000    -3.624000000     5.155000000
C     2.677000000    -2.490000000     5.872000000
C     1.401000000    -1.975000000     5.871000000
H     0.639000000    -2.399000000     5.222000000
C     3.646000000    -1.813000000     6.689000000
H     4.669000000    -2.157000000     6.561000000
C     3.384000000    -0.630000000     7.390000000
H     4.110000000    -0.054000000     7.957000000
C     2.082000000    -0.092000000     7.336000000
H     1.699000000     0.666000000     8.015000000
C     1.095000000    -0.772000000     6.607000000
O    -0.211000000    -0.273000000     6.681000000
C    -0.771000000     0.635000000     5.785000000
C    -2.058000000     0.968000000     5.980000000
H    -2.656000000     0.600000000     6.809000000
C    -2.632000000     1.975000000     5.150000000
O    -3.968000000     2.239000000     5.323000000
C    -4.753000000     2.883000000     4.444000000
C    -5.394000000     2.229000000     3.380000000
H    -5.399000000     1.156000000     3.205000000
C    -4.917000000     4.314000000     4.607000000
H    -4.459000000     4.870000000     5.422000000
C    -5.566000000     5.053000000     3.650000000
H    -5.695000000     6.118000000     3.823000000
C    -6.103000000     4.400000000     2.535000000
H    -6.506000000     4.949000000     1.689000000
C    -6.127000000     2.996000000     2.487000000
O    -6.714000000     2.454000000     1.325000000
C    -5.954000000     2.108000000     0.196000000
C    -6.523000000     1.041000000    -0.565000000
H    -7.515000000     0.663000000    -0.329000000
C    -5.878000000     0.565000000    -1.704000000
O    -6.490000000    -0.390000000    -2.460000000
C    -5.774000000    -1.043000000    -3.505000000
C    -4.998000000    -2.116000000    -3.154000000
H    -4.981000000    -2.369000000    -2.097000000
C    -6.002000000    -0.607000000    -4.760000000
H    -6.717000000     0.176000000    -4.999000000
C    -5.325000000    -1.331000000    -5.783000000
H    -5.462000000    -1.058000000    -6.827000000
C    -4.464000000    -2.372000000    -5.499000000
H    -4.128000000    -2.967000000    -6.345000000
C    -4.356000000    -2.813000000    -4.194000000
O    -3.639000000    -4.017000000    -3.891000000
C    -2.211000000    -4.038000000    -3.796000000
C    -1.638000000    -5.277000000    -3.587000000
H    -2.305000000    -6.084000000    -3.296000000
C    -0.254000000    -5.330000000    -3.310000000
O     0.245000000    -6.561000000    -2.801000000
C     1.498000000    -6.600000000    -2.223000000
C     2.671000000    -6.749000000    -2.903000000
H     2.714000000    -6.864000000    -3.983000000
C     3.936000000    -6.705000000    -2.255000000
H     4.846000000    -6.843000000    -2.833000000
C     4.028000000    -6.471000000    -0.941000000
H     5.022000000    -6.493000000    -0.503000000
C     2.793000000    -6.407000000    -0.204000000
C     1.542000000    -6.425000000    -0.843000000
H     0.585000000    -6.276000000    -0.349000000
O    -3.623000000    -1.856000000     4.530000000
H    -4.092000000    -1.518000000     3.768000000
H    -4.115000000    -1.525000000     5.281000000
O    -1.155000000    -2.331000000     3.252000000
H    -1.974000000    -2.062000000     3.668000000
H    -1.178000000    -1.916000000     2.389000000
O    -7.826000000    -3.843000000     0.158000000
H    -8.516000000    -3.310000000     0.553000000
H    -7.011000000    -3.439000000     0.456000000
O    -4.872000000    -5.481000000    -1.795000000
H    -5.481000000    -6.138000000    -2.133000000
H    -4.888000000    -4.781000000    -2.447000000
O    -3.894000000    -5.198000000     0.872000000
H    -4.409000000    -4.394000000     0.944000000
H    -4.088000000    -5.529000000    -0.004000000
O    -8.306000000    -1.784000000     7.208000000
H    -7.863000000    -1.953000000     8.039000000
H    -7.603000000    -1.780000000     6.558000000
O    -6.900000000    -4.432000000     3.151000000
H    -7.792000000    -4.104000000     3.037000000
H    -6.364000000    -3.871000000     2.591000000
O    -5.543000000    -5.817000000     5.300000000
H    -5.904000000    -5.252000000     4.617000000
H    -4.694000000    -5.427000000     5.510000000
O    -3.566000000    -7.004000000     2.982000000
H    -2.659000000    -6.821000000     3.228000000
H    -3.812000000    -6.275000000     2.413000000
O    -7.758000000    -0.089000000     2.699000000
H    -6.951000000    -0.568000000     2.888000000
H    -7.521000000     0.509000000     1.991000000
O    -1.292000000    -6.241000000     1.406000000
H    -2.088000000    -5.758000000     1.187000000
H    -1.464000000    -7.135000000     1.111000000
O    -6.424000000    -7.215000000     2.849000000
H    -5.491000000    -7.395000000     2.966000000
H    -6.606000000    -6.491000000     3.448000000
O    -7.268000000    -6.480000000     0.343000000
H    -7.129000000    -5.533000000     0.349000000
H    -6.995000000    -6.769000000     1.214000000
O    -7.755000000     1.337000000     5.076000000
H    -8.117000000     2.202000000     4.887000000
H    -7.987000000     0.808000000     4.312000000
O    -0.617000000    -5.194000000     3.717000000
H    -0.678000000    -4.271000000     3.472000000
H    -0.814000000    -5.670000000     2.910000000
O    -8.397000000    -4.328000000    -2.399000000
H    -8.009000000    -4.082000000    -1.559000000
H    -9.195000000    -4.802000000    -2.164000000
O    -6.476000000    -3.170000000     5.587000000
H    -6.435000000    -3.540000000     4.705000000
H    -5.815000000    -2.477000000     5.587000000
O    -3.276000000    -4.472000000     4.919000000
H    -3.198000000    -3.531000000     4.761000000
H    -2.393000000    -4.813000000     4.779000000
O    -9.083000000    -2.674000000     3.332000000
H    -8.809000000    -1.763000000     3.230000000
H    -9.430000000    -2.721000000     4.223000000
