201
-1227.35278
C    -2.086000000     2.340000000     3.342000000
H    -2.356000000     2.757000000     2.375000000
C    -0.782000000     2.490000000     3.721000000
C    -0.421000000     1.981000000     4.934000000
H     0.605000000     2.217000000     5.204000000
C     0.316000000     3.045000000     2.776000000
O    -0.042000000     4.348000000     2.232000000
H     0.307000000     2.320000000     1.949000000
O     1.659000000     3.039000000     3.316000000
C     2.679000000     2.611000000     2.537000000
C     3.087000000     1.300000000     2.725000000
H     2.604000000     0.669000000     3.467000000
C     4.142000000     0.731000000     2.033000000
O     4.487000000    -0.490000000     2.351000000
C     4.629000000     1.492000000     0.920000000
C     5.520000000     0.770000000    -0.130000000
H     6.042000000     1.521000000    -0.726000000
C     4.687000000    -0.040000000    -1.062000000
C     4.294000000     0.576000000    -2.301000000
H     4.583000000     1.596000000    -2.543000000
H     6.260000000     0.104000000     0.318000000
C     4.088000000     2.728000000     0.596000000
H     4.333000000     3.272000000    -0.313000000
C     3.142000000     3.325000000     1.434000000
C     2.653000000     4.739000000     1.100000000
H     3.372000000     5.166000000     0.397000000
H     2.495000000     5.213000000     2.071000000
C     1.387000000     4.668000000     0.284000000
C     1.467000000     4.681000000    -1.108000000
H     2.492000000     4.701000000    -1.470000000
C     0.133000000     4.606000000     0.904000000
C    -0.998000000     4.325000000     0.116000000
H    -1.903000000     4.086000000     0.667000000
C    -0.907000000     4.398000000    -1.275000000
O    -2.046000000     4.176000000    -2.038000000
C    -2.374000000     2.860000000    -2.649000000
C    -3.868000000     2.495000000    -2.522000000
C    -4.368000000     1.605000000    -3.414000000
H    -3.766000000     1.181000000    -4.213000000
C    -4.647000000     2.913000000    -1.412000000
H    -4.221000000     3.533000000    -0.628000000
O    -1.950000000     2.951000000    -3.998000000
H    -1.784000000     2.010000000    -2.276000000
C     0.308000000     4.615000000    -1.880000000
C     0.365000000     4.570000000    -3.425000000
H     1.276000000     5.116000000    -3.681000000
H    -0.488000000     5.132000000    -3.813000000
C     0.461000000     3.160000000    -4.001000000
C     1.705000000     2.487000000    -4.147000000
H     2.624000000     3.067000000    -4.171000000
C    -0.696000000     2.454000000    -4.281000000
C    -0.637000000     1.082000000    -4.543000000
H    -1.522000000     0.482000000    -4.737000000
C     0.609000000     0.410000000    -4.685000000
O     0.538000000    -0.966000000    -4.717000000
C     1.021000000    -1.779000000    -3.637000000
C     0.185000000    -3.062000000    -3.381000000
C    -1.212000000    -2.849000000    -3.264000000
H    -1.641000000    -1.855000000    -3.365000000
C     0.728000000    -4.339000000    -3.101000000
H     1.807000000    -4.474000000    -3.093000000
O     2.412000000    -2.117000000    -3.726000000
H     0.817000000    -1.104000000    -2.793000000
C     1.805000000     1.146000000    -4.463000000
C     3.159000000     0.435000000    -4.597000000
H     3.963000000     1.144000000    -4.805000000
H     3.176000000    -0.289000000    -5.414000000
C     3.532000000    -0.127000000    -3.268000000
C     3.096000000    -1.374000000    -2.900000000
C     3.489000000    -2.001000000    -1.729000000
H     3.239000000    -3.044000000    -1.555000000
C     4.217000000    -1.345000000    -0.744000000
O     4.428000000    -1.934000000     0.546000000
C     3.658000000    -1.427000000     1.616000000
H     2.755000000    -0.965000000     1.189000000
C     3.174000000    -2.515000000     2.461000000
C     2.921000000    -2.291000000     3.813000000
H     2.940000000    -1.346000000     4.349000000
C     2.768000000    -3.721000000     1.894000000
H     2.923000000    -3.923000000     0.837000000
C     2.180000000    -4.672000000     2.722000000
O     1.887000000    -5.900000000     2.151000000
C     1.966000000    -4.452000000     4.070000000
H     1.453000000    -5.231000000     4.628000000
C     2.348000000    -3.236000000     4.636000000
O     1.936000000    -3.020000000     5.955000000
C     1.745000000    -1.819000000     6.543000000
C     0.543000000    -1.137000000     6.366000000
H    -0.184000000    -1.729000000     5.816000000
C     2.739000000    -1.321000000     7.389000000
H     3.643000000    -1.892000000     7.582000000
C     2.544000000    -0.151000000     8.087000000
H     3.343000000     0.297000000     8.672000000
C     1.385000000     0.573000000     7.823000000
H     1.349000000     1.481000000     8.419000000
C     0.360000000     0.076000000     6.987000000
O    -0.899000000     0.595000000     6.910000000
C    -1.279000000     1.186000000     5.698000000
C    -2.542000000     0.984000000     5.275000000
H    -3.082000000     0.332000000     5.956000000
C    -3.014000000     1.661000000     4.172000000
O    -4.307000000     1.556000000     3.866000000
C    -4.929000000     2.606000000     3.161000000
C    -5.423000000     2.169000000     1.914000000
H    -5.453000000     1.107000000     1.683000000
C    -4.935000000     3.928000000     3.565000000
H    -4.375000000     4.270000000     4.432000000
C    -5.571000000     4.912000000     2.766000000
H    -5.557000000     5.919000000     3.175000000
C    -6.054000000     4.506000000     1.539000000
H    -6.484000000     5.274000000     0.901000000
C    -6.065000000     3.177000000     1.160000000
O    -6.574000000     2.583000000    -0.028000000
C    -5.874000000     2.322000000    -1.207000000
C    -6.241000000     1.296000000    -2.078000000
H    -7.178000000     0.755000000    -1.966000000
C    -5.572000000     0.982000000    -3.226000000
O    -6.068000000    -0.019000000    -4.082000000
C    -5.240000000    -1.062000000    -4.457000000
C    -4.694000000    -1.884000000    -3.528000000
H    -4.940000000    -1.667000000    -2.492000000
C    -4.953000000    -1.202000000    -5.835000000
H    -5.400000000    -0.468000000    -6.501000000
C    -4.221000000    -2.318000000    -6.220000000
H    -3.940000000    -2.516000000    -7.251000000
C    -3.809000000    -3.226000000    -5.314000000
H    -3.170000000    -4.046000000    -5.631000000
C    -3.953000000    -2.978000000    -3.935000000
O    -3.430000000    -3.803000000    -3.020000000
C    -2.045000000    -3.938000000    -2.986000000
C    -1.538000000    -5.218000000    -2.762000000
H    -2.109000000    -6.129000000    -2.601000000
C    -0.191000000    -5.357000000    -2.732000000
O     0.227000000    -6.602000000    -2.228000000
C     1.287000000    -6.677000000    -1.357000000
C     2.449000000    -7.354000000    -1.584000000
H     2.529000000    -7.761000000    -2.588000000
C     3.503000000    -7.476000000    -0.670000000
H     4.456000000    -7.920000000    -0.944000000
C     3.265000000    -6.814000000     0.548000000
H     4.038000000    -6.915000000     1.306000000
C     2.067000000    -6.217000000     0.909000000
C     1.066000000    -6.172000000    -0.095000000
H     0.114000000    -5.676000000     0.074000000
O    -3.924000000    -3.308000000     6.881000000
H    -4.547000000    -2.880000000     6.294000000
H    -3.449000000    -2.587000000     7.293000000
O    -1.556000000    -2.351000000     3.174000000
H    -0.969000000    -1.834000000     2.623000000
H    -2.427000000    -2.197000000     2.809000000
O    -5.550000000    -5.429000000     4.436000000
H    -6.365000000    -4.929000000     4.405000000
H    -5.225000000    -5.413000000     3.536000000
O    -5.683000000    -4.888000000     1.293000000
H    -5.111000000    -4.124000000     1.222000000
H    -5.230000000    -5.573000000     0.802000000
O    -2.444000000    -5.355000000     0.465000000
H    -3.150000000    -5.957000000     0.231000000
H    -2.892000000    -4.582000000     0.809000000
O    -4.596000000    -7.118000000     0.159000000
H    -4.850000000    -6.960000000    -0.751000000
H    -5.076000000    -7.908000000     0.408000000
O    -1.372000000    -5.041000000     3.356000000
H    -1.501000000    -4.093000000     3.385000000
H    -1.672000000    -5.297000000     2.484000000
O    -7.167000000    -2.863000000    -0.632000000
H    -6.364000000    -2.391000000    -0.414000000
H    -6.976000000    -3.288000000    -1.468000000
O    -8.438000000    -4.728000000     0.609000000
H    -7.839000000    -4.080000000     0.239000000
H    -7.870000000    -5.436000000     0.910000000
O    -6.436000000    -1.727000000     2.734000000
H    -5.893000000    -1.369000000     2.031000000
H    -6.457000000    -2.668000000     2.564000000
O    -1.176000000    -4.522000000     6.002000000
H    -2.029000000    -4.132000000     6.195000000
H    -1.231000000    -4.775000000     5.081000000
O    -7.417000000    -4.153000000    -3.156000000
H    -7.177000000    -4.728000000    -3.883000000
H    -8.139000000    -4.606000000    -2.721000000
O    -9.741000000    -1.838000000     0.213000000
H    -9.044000000    -2.262000000    -0.287000000
H    -9.294000000    -1.165000000     0.725000000
O    -8.627000000     0.043000000     2.146000000
H    -8.319000000     0.899000000     2.445000000
H    -7.953000000    -0.570000000     2.439000000
O    -8.227000000    -4.320000000     3.686000000
H    -8.171000000    -4.430000000     2.736000000
H    -8.634000000    -3.462000000     3.803000000
O    -4.979000000    -5.978000000    -2.214000000
H    -4.908000000    -5.047000000    -2.423000000
H    -4.940000000    -6.418000000    -3.064000000
O    -5.718000000    -1.710000000     5.558000000
H    -5.928000000    -1.348000000     4.698000000
H    -5.972000000    -1.024000000     6.176000000
O    -8.343000000    -1.842000000    -4.670000000
H    -7.752000000    -2.238000000    -4.030000000
H    -8.951000000    -1.322000000    -4.144000000
O    -2.849000000    -8.586000000     1.869000000
H    -3.159000000    -7.746000000     1.531000000
H    -1.913000000    -8.595000000     1.665000000
