201
-1230.90812
C    -2.296000000     2.444000000     3.645000000
H    -2.510000000     2.804000000     2.642000000
C    -1.020000000     2.759000000     4.107000000
C    -0.624000000     2.304000000     5.361000000
H     0.379000000     2.359000000     5.777000000
C    -0.061000000     3.404000000     3.080000000
O    -0.685000000     4.588000000     2.449000000
H     0.156000000     2.645000000     2.313000000
O     1.231000000     3.716000000     3.681000000
C     2.395000000     3.297000000     3.043000000
C     2.906000000     1.983000000     3.289000000
H     2.476000000     1.399000000     4.099000000
C     3.900000000     1.398000000     2.389000000
O     4.323000000     0.088000000     2.594000000
C     4.238000000     2.091000000     1.222000000
C     5.380000000     1.532000000     0.290000000
H     5.859000000     2.338000000    -0.270000000
C     4.772000000     0.636000000    -0.783000000
C     4.468000000     1.157000000    -2.035000000
H     4.662000000     2.205000000    -2.245000000
H     6.155000000     1.059000000     0.895000000
C     3.651000000     3.333000000     0.907000000
H     3.834000000     3.834000000    -0.040000000
C     2.745000000     3.903000000     1.828000000
C     1.936000000     5.182000000     1.421000000
H     2.652000000     5.882000000     0.986000000
H     1.656000000     5.710000000     2.336000000
C     0.709000000     4.917000000     0.489000000
C     0.859000000     4.867000000    -0.822000000
H     1.799000000     5.042000000    -1.339000000
C    -0.543000000     4.750000000     1.090000000
C    -1.667000000     4.447000000     0.260000000
H    -2.640000000     4.183000000     0.668000000
C    -1.548000000     4.285000000    -1.116000000
O    -2.591000000     3.814000000    -1.875000000
C    -2.471000000     2.538000000    -2.433000000
C    -3.835000000     1.793000000    -2.390000000
C    -4.227000000     0.862000000    -3.360000000
H    -3.529000000     0.785000000    -4.190000000
C    -4.680000000     2.023000000    -1.280000000
H    -4.332000000     2.636000000    -0.453000000
O    -1.983000000     2.628000000    -3.777000000
H    -1.719000000     1.986000000    -1.850000000
C    -0.250000000     4.536000000    -1.694000000
C     0.026000000     4.571000000    -3.201000000
H     0.860000000     5.250000000    -3.391000000
H    -0.716000000     5.172000000    -3.732000000
C     0.319000000     3.155000000    -3.773000000
C     1.621000000     2.685000000    -3.735000000
H     2.450000000     3.309000000    -3.412000000
C    -0.677000000     2.226000000    -3.967000000
C    -0.445000000     0.947000000    -4.400000000
H    -1.345000000     0.372000000    -4.607000000
C     0.850000000     0.476000000    -4.476000000
O     1.044000000    -0.888000000    -4.666000000
C     1.469000000    -1.714000000    -3.619000000
C     0.803000000    -3.031000000    -3.554000000
C    -0.511000000    -3.153000000    -4.028000000
H    -1.044000000    -2.295000000    -4.431000000
C     1.427000000    -4.169000000    -3.035000000
H     2.484000000    -4.132000000    -2.786000000
O     2.900000000    -1.860000000    -3.574000000
H     1.372000000    -1.243000000    -2.630000000
C     1.867000000     1.372000000    -4.142000000
C     3.375000000     0.877000000    -4.308000000
H     4.025000000     1.720000000    -4.550000000
H     3.314000000     0.120000000    -5.092000000
C     3.870000000     0.304000000    -3.016000000
C     3.666000000    -1.042000000    -2.742000000
C     4.016000000    -1.594000000    -1.483000000
H     4.024000000    -2.677000000    -1.387000000
C     4.565000000    -0.758000000    -0.528000000
O     4.672000000    -1.283000000     0.758000000
C     3.665000000    -0.901000000     1.712000000
H     2.836000000    -0.459000000     1.140000000
C     2.991000000    -2.074000000     2.363000000
C     2.199000000    -1.855000000     3.520000000
H     2.122000000    -0.836000000     3.889000000
C     3.034000000    -3.389000000     1.822000000
H     3.498000000    -3.530000000     0.850000000
C     2.348000000    -4.383000000     2.394000000
O     2.564000000    -5.688000000     2.019000000
C     1.723000000    -4.223000000     3.582000000
H     1.270000000    -5.041000000     4.136000000
C     1.621000000    -2.916000000     4.112000000
O     0.934000000    -2.830000000     5.224000000
C     1.048000000    -1.755000000     6.038000000
C    -0.012000000    -0.842000000     6.113000000
H    -0.917000000    -0.911000000     5.516000000
C     2.055000000    -1.617000000     6.986000000
H     2.812000000    -2.375000000     7.169000000
C     2.035000000    -0.586000000     7.969000000
H     2.818000000    -0.443000000     8.709000000
C     0.993000000     0.347000000     7.987000000
H     0.995000000     1.172000000     8.695000000
C    -0.051000000     0.216000000     7.054000000
O    -1.090000000     1.016000000     7.285000000
C    -1.516000000     1.610000000     6.163000000
C    -2.776000000     1.345000000     5.650000000
H    -3.537000000     0.717000000     6.105000000
C    -3.102000000     1.618000000     4.354000000
O    -4.323000000     1.128000000     3.868000000
C    -5.076000000     1.966000000     3.101000000
C    -5.591000000     1.357000000     1.921000000
H    -5.313000000     0.357000000     1.598000000
C    -5.421000000     3.293000000     3.414000000
H    -5.056000000     3.815000000     4.295000000
C    -6.163000000     4.036000000     2.439000000
H    -6.421000000     5.081000000     2.588000000
C    -6.656000000     3.421000000     1.242000000
H    -7.240000000     4.019000000     0.548000000
C    -6.365000000     2.063000000     1.019000000
O    -6.741000000     1.485000000    -0.099000000
C    -5.882000000     1.332000000    -1.157000000
C    -6.262000000     0.476000000    -2.215000000
H    -7.257000000     0.039000000    -2.188000000
C    -5.400000000     0.120000000    -3.230000000
O    -5.743000000    -0.770000000    -4.205000000
C    -4.826000000    -1.627000000    -4.843000000
C    -4.148000000    -2.690000000    -4.205000000
H    -4.153000000    -2.652000000    -3.119000000
C    -4.696000000    -1.381000000    -6.215000000
H    -5.180000000    -0.491000000    -6.610000000
C    -4.004000000    -2.347000000    -6.963000000
H    -3.953000000    -2.249000000    -8.045000000
C    -3.290000000    -3.421000000    -6.364000000
H    -2.833000000    -4.193000000    -6.977000000
C    -3.297000000    -3.507000000    -4.929000000
O    -2.457000000    -4.479000000    -4.321000000
C    -1.186000000    -4.305000000    -3.732000000
C    -0.516000000    -5.453000000    -3.346000000
H    -0.934000000    -6.456000000    -3.336000000
C     0.784000000    -5.392000000    -2.976000000
O     1.549000000    -6.545000000    -2.691000000
C     2.323000000    -6.587000000    -1.562000000
C     3.466000000    -7.484000000    -1.636000000
H     3.759000000    -7.919000000    -2.588000000
C     4.196000000    -7.840000000    -0.476000000
H     5.012000000    -8.558000000    -0.472000000
C     3.895000000    -7.182000000     0.695000000
H     4.459000000    -7.359000000     1.607000000
C     2.869000000    -6.209000000     0.786000000
C     2.078000000    -5.921000000    -0.359000000
H     1.245000000    -5.230000000    -0.259000000
O    -4.300000000    -4.743000000     2.317000000
H    -4.114000000    -4.185000000     3.072000000
H    -3.764000000    -4.380000000     1.612000000
O    -0.918000000    -7.126000000     2.061000000
H    -1.244000000    -6.615000000     1.320000000
H    -1.535000000    -6.942000000     2.769000000
O    -6.880000000    -4.261000000     1.324000000
H    -6.030000000    -4.399000000     1.741000000
H    -6.682000000    -3.746000000     0.542000000
O    -4.816000000    -7.848000000    -1.116000000
H    -3.978000000    -8.232000000    -1.376000000
H    -5.407000000    -8.052000000    -1.841000000
O    -6.142000000    -1.101000000     5.951000000
H    -6.231000000    -1.654000000     6.727000000
H    -6.535000000    -1.614000000     5.245000000
O    -1.544000000    -5.803000000    -0.336000000
H    -1.921000000    -6.093000000    -1.167000000
H    -2.024000000    -5.003000000    -0.121000000
O    -4.961000000    -4.854000000    -1.872000000
H    -4.259000000    -4.392000000    -1.413000000
H    -4.925000000    -5.746000000    -1.528000000
O    -3.016000000    -6.790000000     4.172000000
H    -3.097000000    -5.837000000     4.209000000
H    -2.782000000    -7.046000000     5.064000000
O    -6.314000000    -2.316000000    -0.668000000
H    -5.605000000    -2.077000000    -0.071000000
H    -5.890000000    -2.847000000    -1.342000000
O    -7.800000000    -6.292000000    -1.456000000
H    -8.094000000    -6.550000000    -0.582000000
H    -7.823000000    -7.103000000    -1.965000000
O    -4.787000000    -2.027000000     3.198000000
H    -4.443000000    -1.185000000     3.495000000
H    -4.442000000    -2.127000000     2.310000000
O    -7.389000000    -4.154000000    -3.335000000
H    -7.921000000    -4.805000000    -2.877000000
H    -6.495000000    -4.325000000    -3.040000000
O    -8.586000000    -0.895000000     0.456000000
H    -8.766000000    -0.799000000     1.392000000
H    -7.707000000    -1.272000000     0.419000000
O    -5.394000000    -7.534000000     2.431000000
H    -4.747000000    -6.862000000     2.646000000
H    -5.124000000    -7.860000000     1.572000000
O    -4.713000000    -6.361000000    -4.839000000
H    -5.104000000    -5.555000000    -4.501000000
H    -3.798000000    -6.318000000    -4.562000000
O    -7.831000000    -6.893000000     1.353000000
H    -7.135000000    -7.501000000     1.605000000
H    -7.403000000    -6.037000000     1.325000000
O    -9.772000000    -3.158000000    -2.083000000
H   -10.164000000    -3.963000000    -2.421000000
H    -8.836000000    -3.350000000    -2.031000000
O    -2.502000000    -4.251000000     5.306000000
H    -2.957000000    -3.968000000     6.099000000
H    -1.582000000    -4.041000000     5.470000000
O    -7.389000000    -2.500000000     3.712000000
H    -6.481000000    -2.392000000     3.429000000
H    -7.623000000    -3.385000000     3.433000000
