201
-1258.22518
C    -2.294000000     3.293000000     3.871000000
H    -2.497000000     4.136000000     3.216000000
C    -0.981000000     2.714000000     3.769000000
C    -0.765000000     1.516000000     4.468000000
H     0.097000000     0.882000000     4.275000000
C    -0.007000000     3.160000000     2.735000000
O    -0.377000000     4.515000000     2.258000000
H    -0.004000000     2.405000000     1.935000000
O     1.279000000     3.169000000     3.356000000
C     2.344000000     2.782000000     2.568000000
C     2.985000000     1.594000000     2.874000000
H     2.529000000     0.959000000     3.629000000
C     4.058000000     1.073000000     2.126000000
O     4.512000000    -0.201000000     2.385000000
C     4.563000000     1.835000000     1.045000000
C     5.603000000     1.196000000     0.125000000
H     5.901000000     2.033000000    -0.509000000
C     5.020000000     0.192000000    -0.917000000
C     4.618000000     0.760000000    -2.088000000
H     4.651000000     1.838000000    -2.220000000
H     6.436000000     0.805000000     0.713000000
C     3.879000000     3.024000000     0.708000000
H     4.092000000     3.446000000    -0.271000000
C     2.785000000     3.556000000     1.484000000
C     2.175000000     4.932000000     1.179000000
H     2.877000000     5.578000000     0.647000000
H     1.921000000     5.402000000     2.131000000
C     0.921000000     4.817000000     0.307000000
C     1.115000000     4.697000000    -1.056000000
H     2.142000000     4.733000000    -1.412000000
C    -0.313000000     4.670000000     0.880000000
C    -1.398000000     4.338000000     0.107000000
H    -2.377000000     4.243000000     0.570000000
C    -1.274000000     4.294000000    -1.260000000
O    -2.364000000     3.863000000    -1.956000000
C    -2.242000000     2.507000000    -2.327000000
C    -3.585000000     1.758000000    -2.057000000
C    -3.930000000     0.612000000    -2.763000000
H    -3.209000000     0.302000000    -3.515000000
C    -4.450000000     2.247000000    -1.078000000
H    -4.080000000     3.013000000    -0.401000000
O    -1.913000000     2.352000000    -3.750000000
H    -1.495000000     1.985000000    -1.712000000
C     0.003000000     4.517000000    -1.846000000
C     0.202000000     4.433000000    -3.352000000
H     1.062000000     5.049000000    -3.623000000
H    -0.548000000     4.902000000    -3.992000000
C     0.409000000     2.974000000    -3.843000000
C     1.737000000     2.519000000    -3.940000000
H     2.528000000     3.248000000    -3.785000000
C    -0.601000000     2.060000000    -3.974000000
C    -0.415000000     0.753000000    -4.383000000
H    -1.205000000     0.016000000    -4.501000000
C     0.918000000     0.292000000    -4.421000000
O     1.090000000    -0.959000000    -4.834000000
C     1.438000000    -1.872000000    -3.713000000
C     0.600000000    -3.195000000    -3.726000000
C    -0.541000000    -3.364000000    -4.489000000
H    -0.848000000    -2.583000000    -5.182000000
C     0.798000000    -4.112000000    -2.680000000
H     1.618000000    -3.968000000    -1.981000000
O     2.852000000    -2.093000000    -3.723000000
H     1.129000000    -1.362000000    -2.789000000
C     2.016000000     1.195000000    -4.307000000
C     3.442000000     0.654000000    -4.422000000
H     4.131000000     1.469000000    -4.652000000
H     3.544000000    -0.110000000    -5.196000000
C     3.940000000     0.019000000    -3.105000000
C     3.686000000    -1.339000000    -2.885000000
C     3.995000000    -1.884000000    -1.641000000
H     3.590000000    -2.868000000    -1.421000000
C     4.677000000    -1.092000000    -0.690000000
O     4.840000000    -1.596000000     0.588000000
C     3.938000000    -1.294000000     1.640000000
H     3.034000000    -0.862000000     1.187000000
C     3.499000000    -2.431000000     2.525000000
C     3.170000000    -2.126000000     3.870000000
H     3.099000000    -1.109000000     4.248000000
C     3.444000000    -3.718000000     1.970000000
H     3.631000000    -3.794000000     0.902000000
C     3.119000000    -4.744000000     2.871000000
O     3.124000000    -5.985000000     2.385000000
C     2.827000000    -4.481000000     4.146000000
H     2.558000000    -5.350000000     4.741000000
C     2.745000000    -3.169000000     4.653000000
O     2.310000000    -2.934000000     5.947000000
C     1.773000000    -1.752000000     6.387000000
C     0.422000000    -1.461000000     6.075000000
H    -0.189000000    -1.974000000     5.337000000
C     2.437000000    -0.978000000     7.285000000
H     3.453000000    -1.221000000     7.586000000
C     1.851000000     0.144000000     7.860000000
H     2.497000000     0.832000000     8.399000000
C     0.543000000     0.512000000     7.470000000
H     0.027000000     1.356000000     7.919000000
C    -0.168000000    -0.344000000     6.630000000
O    -1.449000000    -0.061000000     6.177000000
C    -1.706000000     1.045000000     5.416000000
C    -3.000000000     1.596000000     5.379000000
H    -3.761000000     1.169000000     6.028000000
C    -3.286000000     2.663000000     4.609000000
O    -4.589000000     3.051000000     4.561000000
C    -5.301000000     3.382000000     3.397000000
C    -5.447000000     2.443000000     2.346000000
H    -4.993000000     1.456000000     2.330000000
C    -5.835000000     4.610000000     3.366000000
H    -5.732000000     5.360000000     4.146000000
C    -6.629000000     4.976000000     2.239000000
H    -7.018000000     5.990000000     2.190000000
C    -6.865000000     4.016000000     1.187000000
H    -7.534000000     4.294000000     0.377000000
C    -6.238000000     2.731000000     1.239000000
O    -6.477000000     1.896000000     0.276000000
C    -5.614000000     1.523000000    -0.766000000
C    -5.808000000     0.322000000    -1.474000000
H    -6.733000000    -0.201000000    -1.244000000
C    -5.099000000    -0.132000000    -2.551000000
O    -5.502000000    -1.203000000    -3.292000000
C    -4.867000000    -1.735000000    -4.384000000
C    -4.015000000    -2.857000000    -4.140000000
H    -3.942000000    -3.247000000    -3.129000000
C    -5.103000000    -1.267000000    -5.709000000
H    -5.871000000    -0.513000000    -5.862000000
C    -4.486000000    -1.924000000    -6.762000000
H    -4.675000000    -1.587000000    -7.778000000
C    -3.698000000    -3.054000000    -6.504000000
H    -3.112000000    -3.554000000    -7.272000000
C    -3.407000000    -3.496000000    -5.193000000
O    -2.671000000    -4.596000000    -5.008000000
C    -1.456000000    -4.451000000    -4.255000000
C    -1.222000000    -5.287000000    -3.131000000
H    -1.956000000    -6.029000000    -2.827000000
C    -0.120000000    -5.130000000    -2.367000000
O    -0.050000000    -5.942000000    -1.224000000
C     1.155000000    -6.274000000    -0.742000000
C     1.996000000    -7.101000000    -1.563000000
H     1.599000000    -7.420000000    -2.523000000
C     3.228000000    -7.428000000    -1.041000000
H     3.862000000    -8.059000000    -1.658000000
C     3.612000000    -7.057000000     0.250000000
H     4.575000000    -7.398000000     0.620000000
C     2.766000000    -6.335000000     1.067000000
C     1.514000000    -5.848000000     0.501000000
H     0.783000000    -5.252000000     1.041000000
O    -5.152000000    -5.891000000     3.389000000
H    -5.083000000    -5.648000000     4.313000000
H    -4.311000000    -5.637000000     3.011000000
O    -8.870000000    -4.779000000     0.038000000
H    -8.027000000    -4.779000000     0.493000000
H    -8.716000000    -4.260000000    -0.751000000
O    -1.682000000    -5.209000000     3.885000000
H    -1.814000000    -4.308000000     4.177000000
H    -1.969000000    -5.209000000     2.972000000
O    -2.934000000    -5.658000000     1.520000000
H    -2.747000000    -6.487000000     1.079000000
H    -3.194000000    -5.065000000     0.816000000
O    -6.598000000    -8.230000000     2.812000000
H    -6.350000000    -8.361000000     1.897000000
H    -6.242000000    -7.371000000     3.036000000
O    -4.639000000    -6.191000000    -1.627000000
H    -4.342000000    -5.323000000    -1.354000000
H    -4.894000000    -6.624000000    -0.812000000
O    -0.407000000    -1.370000000     2.760000000
H     0.200000000    -2.070000000     2.522000000
H    -0.522000000    -0.868000000     1.953000000
O    -7.893000000    -2.742000000    -4.027000000
H    -7.331000000    -2.829000000    -3.257000000
H    -8.222000000    -1.844000000    -3.983000000
O    -6.438000000    -8.447000000     0.062000000
H    -6.594000000    -9.359000000    -0.181000000
H    -7.133000000    -7.959000000    -0.379000000
O    -5.370000000    -1.977000000     5.592000000
H    -6.246000000    -1.663000000     5.816000000
H    -5.273000000    -1.773000000     4.661000000
O    -4.722000000    -1.764000000     2.958000000
H    -5.393000000    -1.082000000     2.998000000
H    -4.715000000    -2.039000000     2.042000000
O    -4.791000000    -4.802000000     5.758000000
H    -3.864000000    -4.857000000     5.988000000
H    -4.979000000    -3.864000000     5.742000000
O    -7.327000000    -1.583000000     0.928000000
H    -6.608000000    -2.002000000     0.456000000
H    -8.040000000    -2.221000000     0.894000000
O    -6.828000000    -7.376000000    -3.212000000
H    -6.400000000    -7.638000000    -4.027000000
H    -6.114000000    -7.306000000    -2.579000000
O    -6.466000000    -3.546000000    -1.515000000
H    -5.743000000    -3.143000000    -1.035000000
H    -6.185000000    -4.450000000    -1.657000000
O    -3.060000000    -8.238000000     0.595000000
H    -2.453000000    -8.307000000    -0.141000000
H    -3.808000000    -8.778000000     0.341000000
O    -6.939000000    -0.002000000     3.276000000
H    -7.702000000     0.564000000     3.389000000
H    -7.081000000    -0.430000000     2.431000000
O    -2.420000000    -2.484000000     4.347000000
H    -3.163000000    -2.124000000     3.862000000
H    -1.652000000    -2.222000000     3.839000000
O    -6.454000000    -4.651000000     1.396000000
H    -5.755000000    -4.029000000     1.191000000
H    -6.070000000    -5.235000000     2.050000000
