201
-1259.36492
C    -3.607000000    -1.721000000     2.954000000
H    -3.580000000    -2.342000000     2.063000000
C    -3.580000000    -0.281000000     2.726000000
C    -3.683000000     0.540000000     3.855000000
H    -3.709000000     1.619000000     3.721000000
C    -3.648000000     0.300000000     1.331000000
O    -4.441000000    -0.642000000     0.586000000
H    -2.592000000     0.358000000     1.029000000
O    -4.188000000     1.648000000     1.337000000
C    -3.676000000     2.625000000     0.472000000
C    -2.760000000     3.546000000     1.011000000
H    -2.614000000     3.607000000     2.087000000
C    -1.972000000     4.399000000     0.219000000
O    -0.959000000     5.112000000     0.824000000
C    -2.192000000     4.352000000    -1.181000000
C    -1.304000000     5.228000000    -1.992000000
H    -1.781000000     5.577000000    -2.910000000
C    -0.096000000     4.408000000    -2.362000000
C    -0.140000000     3.691000000    -3.607000000
H    -1.016000000     3.793000000    -4.243000000
H    -0.897000000     6.138000000    -1.545000000
C    -3.105000000     3.397000000    -1.775000000
H    -3.285000000     3.327000000    -2.845000000
C    -3.852000000     2.550000000    -0.892000000
C    -4.883000000     1.542000000    -1.339000000
H    -5.296000000     1.946000000    -2.266000000
H    -5.735000000     1.413000000    -0.667000000
C    -4.282000000     0.199000000    -1.697000000
C    -3.855000000    -0.054000000    -2.994000000
H    -4.046000000     0.760000000    -3.689000000
C    -4.252000000    -0.785000000    -0.759000000
C    -3.908000000    -2.080000000    -1.134000000
H    -4.012000000    -2.895000000    -0.422000000
C    -3.417000000    -2.317000000    -2.394000000
O    -2.719000000    -3.484000000    -2.559000000
C    -1.272000000    -3.446000000    -2.367000000
C    -0.738000000    -4.597000000    -1.512000000
C     0.434000000    -5.156000000    -1.892000000
H     1.011000000    -4.675000000    -2.678000000
C    -1.422000000    -5.119000000    -0.401000000
H    -2.209000000    -4.461000000    -0.042000000
O    -0.672000000    -3.341000000    -3.642000000
H    -1.075000000    -2.539000000    -1.776000000
C    -3.340000000    -1.279000000    -3.358000000
C    -2.652000000    -1.405000000    -4.733000000
H    -3.081000000    -0.712000000    -5.460000000
H    -2.833000000    -2.375000000    -5.199000000
C    -1.143000000    -1.088000000    -4.572000000
C    -0.727000000     0.159000000    -4.849000000
H    -1.468000000     0.864000000    -5.219000000
C    -0.260000000    -2.064000000    -4.042000000
C     1.091000000    -1.772000000    -3.885000000
H     1.853000000    -2.514000000    -3.662000000
C     1.518000000    -0.483000000    -4.290000000
O     2.816000000    -0.241000000    -3.980000000
C     3.068000000     0.559000000    -2.806000000
C     4.159000000     0.025000000    -1.835000000
C     4.083000000    -1.360000000    -1.565000000
H     3.294000000    -1.930000000    -2.049000000
C     5.082000000     0.865000000    -1.189000000
H     4.997000000     1.936000000    -1.349000000
O     3.167000000     1.969000000    -3.164000000
H     2.142000000     0.552000000    -2.212000000
C     0.621000000     0.498000000    -4.695000000
C     1.051000000     1.950000000    -5.111000000
H     0.317000000     2.268000000    -5.855000000
H     2.021000000     1.944000000    -5.612000000
C     1.005000000     2.864000000    -3.930000000
C     2.094000000     2.772000000    -2.992000000
C     2.121000000     3.534000000    -1.867000000
H     2.991000000     3.511000000    -1.217000000
C     1.051000000     4.387000000    -1.536000000
O     1.053000000     5.061000000    -0.295000000
C     0.269000000     4.390000000     0.719000000
H     0.045000000     3.371000000     0.370000000
C     1.003000000     4.271000000     2.002000000
C     0.400000000     3.808000000     3.188000000
H    -0.677000000     3.669000000     3.231000000
C     2.354000000     4.441000000     1.962000000
H     2.951000000     4.804000000     1.129000000
C     3.122000000     4.142000000     3.097000000
O     4.470000000     4.018000000     3.104000000
C     2.561000000     3.599000000     4.193000000
H     3.280000000     3.323000000     4.960000000
C     1.154000000     3.482000000     4.285000000
O     0.627000000     2.831000000     5.357000000
C    -0.720000000     2.883000000     5.694000000
C    -1.544000000     1.691000000     5.769000000
H    -1.181000000     0.737000000     5.397000000
C    -1.207000000     4.114000000     5.991000000
H    -0.561000000     4.983000000     5.899000000
C    -2.489000000     4.211000000     6.496000000
H    -2.918000000     5.073000000     7.002000000
C    -3.308000000     3.056000000     6.575000000
H    -4.313000000     3.125000000     6.984000000
C    -2.868000000     1.842000000     6.094000000
O    -3.754000000     0.766000000     6.193000000
C    -3.711000000    -0.044000000     5.106000000
C    -3.728000000    -1.430000000     5.325000000
H    -3.735000000    -1.906000000     6.302000000
C    -3.703000000    -2.274000000     4.235000000
O    -3.507000000    -3.603000000     4.438000000
C    -3.735000000    -4.636000000     3.485000000
C    -2.645000000    -5.339000000     2.959000000
H    -1.665000000    -5.108000000     3.368000000
C    -5.011000000    -4.852000000     2.847000000
H    -5.872000000    -4.340000000     3.269000000
C    -5.146000000    -5.828000000     1.844000000
H    -6.152000000    -5.905000000     1.440000000
C    -4.021000000    -6.512000000     1.356000000
H    -4.064000000    -7.148000000     0.476000000
C    -2.724000000    -6.168000000     1.841000000
O    -1.561000000    -6.658000000     1.383000000
C    -0.914000000    -6.252000000     0.209000000
C     0.361000000    -6.794000000    -0.120000000
H     0.787000000    -7.523000000     0.563000000
C     0.967000000    -6.247000000    -1.214000000
O     2.148000000    -6.786000000    -1.677000000
C     3.097000000    -5.826000000    -2.040000000
C     3.603000000    -5.030000000    -1.019000000
H     3.156000000    -5.064000000    -0.029000000
C     3.734000000    -5.916000000    -3.276000000
H     3.391000000    -6.716000000    -3.927000000
C     4.767000000    -5.047000000    -3.570000000
H     5.218000000    -4.978000000    -4.557000000
C     5.101000000    -4.101000000    -2.630000000
H     5.942000000    -3.434000000    -2.798000000
C     4.615000000    -4.125000000    -1.343000000
O     5.127000000    -3.254000000    -0.420000000
C     4.976000000    -1.897000000    -0.638000000
C     5.855000000    -1.033000000     0.042000000
H     6.604000000    -1.451000000     0.709000000
C     5.945000000     0.338000000    -0.251000000
O     6.927000000     1.052000000     0.340000000
C     6.526000000     2.367000000     0.683000000
C     6.935000000     3.421000000    -0.114000000
H     7.727000000     3.258000000    -0.840000000
C     6.497000000     4.752000000     0.164000000
H     6.817000000     5.607000000    -0.428000000
C     5.625000000     4.948000000     1.228000000
H     5.296000000     5.957000000     1.464000000
C     5.258000000     3.875000000     2.021000000
C     5.681000000     2.591000000     1.741000000
H     5.384000000     1.726000000     2.328000000
O     8.733000000    -4.651000000     5.767000000
H     8.042000000    -4.299000000     5.205000000
H     9.526000000    -4.599000000     5.232000000
O     1.080000000    -0.364000000     5.847000000
H     1.347000000     0.526000000     6.080000000
H     1.378000000    -0.475000000     4.944000000
O    -0.391000000    -2.646000000     4.168000000
H     0.120000000    -2.870000000     4.945000000
H     0.263000000    -2.503000000     3.484000000
O     3.660000000    -4.884000000     7.241000000
H     4.206000000    -5.560000000     6.839000000
H     4.285000000    -4.257000000     7.603000000
O     2.248000000    -3.140000000     5.144000000
H     2.668000000    -3.439000000     5.951000000
H     2.974000000    -2.968000000     4.545000000
O     4.768000000     1.082000000     6.682000000
H     4.961000000     0.343000000     7.259000000
H     4.705000000     0.693000000     5.809000000
O     6.679000000    -3.832000000     3.873000000
H     5.838000000    -3.423000000     3.666000000
H     7.090000000    -3.978000000     3.021000000
O     6.901000000    -0.132000000     4.016000000
H     7.273000000    -0.051000000     4.894000000
H     5.960000000    -0.230000000     4.162000000
O     2.182000000     1.492000000     7.963000000
H     2.495000000     2.132000000     8.603000000
H     2.975000000     1.185000000     7.523000000
O     6.549000000     3.348000000     7.032000000
H     5.854000000     2.702000000     6.909000000
H     7.263000000     2.858000000     7.440000000
O     1.299000000    -5.497000000     3.783000000
H     2.037000000    -5.675000000     3.198000000
H     1.651000000    -4.891000000     4.435000000
O     8.343000000    -0.872000000     6.556000000
H     8.145000000    -0.722000000     7.480000000
H     7.624000000    -1.420000000     6.242000000
O     7.663000000    -3.912000000     1.048000000
H     7.295000000    -3.353000000     0.363000000
H     8.594000000    -3.690000000     1.063000000
O     4.007000000    -5.186000000     2.702000000
H     4.769000000    -5.745000000     2.855000000
H     4.375000000    -4.317000000     2.543000000
O     3.877000000    -1.271000000     7.976000000
H     3.001000000    -1.422000000     7.622000000
H     3.742000000    -1.180000000     8.919000000
O     0.330000000    -1.870000000     7.877000000
H    -0.095000000    -2.503000000     7.299000000
H     0.725000000    -1.232000000     7.283000000
O     9.367000000    -0.535000000     2.370000000
H     8.541000000    -0.238000000     2.750000000
H     9.972000000     0.193000000     2.512000000
O     5.767000000    -3.001000000     6.844000000
H     5.675000000    -3.232000000     5.920000000
H     5.279000000    -2.183000000     6.937000000
O     6.336000000    -5.899000000     6.130000000
H     7.245000000    -5.599000000     6.133000000
H     6.143000000    -6.069000000     5.208000000
