201
-1249.92572
C    -2.134000000     2.102000000     3.843000000
H    -2.523000000     2.424000000     2.881000000
C    -0.769000000     2.292000000     4.125000000
C    -0.311000000     1.611000000     5.297000000
H     0.708000000     1.754000000     5.647000000
C     0.148000000     2.983000000     3.158000000
O    -0.495000000     4.108000000     2.620000000
H     0.220000000     2.191000000     2.398000000
O     1.482000000     3.230000000     3.692000000
C     2.483000000     2.891000000     2.810000000
C     3.107000000     1.654000000     3.017000000
H     2.737000000     1.076000000     3.859000000
C     3.917000000     1.135000000     2.025000000
O     4.411000000    -0.124000000     2.168000000
C     4.402000000     1.971000000     0.985000000
C     5.408000000     1.386000000    -0.020000000
H     6.047000000     2.226000000    -0.299000000
C     4.740000000     0.481000000    -1.078000000
C     4.369000000     1.043000000    -2.292000000
H     4.474000000     2.110000000    -2.474000000
H     6.089000000     0.735000000     0.531000000
C     3.873000000     3.258000000     0.829000000
H     4.295000000     3.890000000     0.052000000
C     2.824000000     3.701000000     1.679000000
C     2.101000000     5.037000000     1.495000000
H     2.715000000     5.810000000     1.027000000
H     1.718000000     5.389000000     2.456000000
C     0.806000000     4.760000000     0.681000000
C     0.794000000     4.832000000    -0.727000000
H     1.726000000     5.088000000    -1.224000000
C    -0.381000000     4.403000000     1.276000000
C    -1.461000000     4.147000000     0.533000000
H    -2.363000000     3.860000000     1.066000000
C    -1.465000000     4.120000000    -0.895000000
O    -2.548000000     3.729000000    -1.591000000
C    -2.619000000     2.420000000    -2.163000000
C    -3.928000000     1.756000000    -1.882000000
C    -4.154000000     0.455000000    -2.351000000
H    -3.404000000    -0.022000000    -2.977000000
C    -4.896000000     2.257000000    -0.983000000
H    -4.711000000     3.230000000    -0.536000000
O    -2.296000000     2.355000000    -3.544000000
H    -1.912000000     1.787000000    -1.606000000
C    -0.277000000     4.402000000    -1.532000000
C    -0.156000000     4.401000000    -2.996000000
H     0.700000000     5.022000000    -3.268000000
H    -1.092000000     4.815000000    -3.378000000
C     0.065000000     2.989000000    -3.573000000
C     1.365000000     2.593000000    -3.636000000
H     2.105000000     3.341000000    -3.363000000
C    -0.960000000     2.097000000    -3.916000000
C    -0.683000000     0.908000000    -4.660000000
H    -1.442000000     0.280000000    -5.119000000
C     0.653000000     0.596000000    -4.827000000
O     0.984000000    -0.717000000    -5.332000000
C     1.260000000    -1.616000000    -4.244000000
C     0.503000000    -3.009000000    -4.314000000
C    -0.775000000    -3.022000000    -4.727000000
H    -1.291000000    -2.155000000    -5.130000000
C     1.041000000    -4.160000000    -3.767000000
H     2.040000000    -4.119000000    -3.340000000
O     2.731000000    -1.808000000    -3.974000000
H     0.920000000    -1.065000000    -3.354000000
C     1.711000000     1.415000000    -4.324000000
C     3.163000000     0.983000000    -4.484000000
H     3.828000000     1.834000000    -4.644000000
H     3.320000000     0.381000000    -5.381000000
C     3.723000000     0.263000000    -3.253000000
C     3.424000000    -1.058000000    -3.027000000
C     3.879000000    -1.652000000    -1.828000000
H     3.616000000    -2.702000000    -1.725000000
C     4.551000000    -0.896000000    -0.857000000
O     4.799000000    -1.520000000     0.362000000
C     3.822000000    -1.163000000     1.307000000
H     2.889000000    -0.824000000     0.834000000
C     3.290000000    -2.290000000     2.099000000
C     3.120000000    -2.215000000     3.493000000
H     3.560000000    -1.364000000     4.008000000
C     2.723000000    -3.363000000     1.464000000
H     2.681000000    -3.324000000     0.379000000
C     2.030000000    -4.332000000     2.101000000
O     1.515000000    -5.432000000     1.398000000
C     1.989000000    -4.287000000     3.483000000
H     1.490000000    -5.093000000     4.014000000
C     2.408000000    -3.158000000     4.141000000
O     2.344000000    -3.116000000     5.503000000
C     2.160000000    -1.967000000     6.256000000
C     0.828000000    -1.569000000     6.437000000
H    -0.027000000    -1.890000000     5.847000000
C     3.247000000    -1.390000000     6.878000000
H     4.256000000    -1.780000000     6.770000000
C     3.023000000    -0.262000000     7.699000000
H     3.899000000     0.194000000     8.154000000
C     1.712000000     0.233000000     7.788000000
H     1.551000000     1.127000000     8.386000000
C     0.602000000    -0.353000000     7.102000000
O    -0.666000000     0.158000000     7.197000000
C    -1.144000000     0.888000000     6.160000000
C    -2.497000000     0.832000000     5.870000000
H    -3.148000000     0.261000000     6.526000000
C    -3.006000000     1.441000000     4.732000000
O    -4.348000000     1.455000000     4.546000000
C    -5.002000000     2.266000000     3.615000000
C    -5.480000000     1.699000000     2.418000000
H    -5.257000000     0.679000000     2.115000000
C    -5.306000000     3.610000000     3.882000000
H    -4.935000000     4.107000000     4.775000000
C    -6.011000000     4.378000000     2.909000000
H    -6.212000000     5.438000000     3.041000000
C    -6.539000000     3.726000000     1.811000000
H    -7.162000000     4.301000000     1.131000000
C    -6.187000000     2.444000000     1.526000000
O    -6.824000000     1.913000000     0.429000000
C    -5.992000000     1.473000000    -0.607000000
C    -6.230000000     0.300000000    -1.240000000
H    -7.109000000    -0.265000000    -0.942000000
C    -5.279000000    -0.285000000    -2.071000000
O    -5.465000000    -1.620000000    -2.434000000
C    -5.007000000    -1.997000000    -3.669000000
C    -4.114000000    -3.090000000    -3.830000000
H    -3.833000000    -3.656000000    -2.946000000
C    -5.377000000    -1.142000000    -4.750000000
H    -6.172000000    -0.457000000    -4.464000000
C    -4.813000000    -1.410000000    -5.991000000
H    -5.022000000    -0.716000000    -6.801000000
C    -3.973000000    -2.555000000    -6.180000000
H    -3.568000000    -2.713000000    -7.176000000
C    -3.595000000    -3.354000000    -5.118000000
O    -2.741000000    -4.354000000    -5.283000000
C    -1.500000000    -4.236000000    -4.736000000
C    -0.872000000    -5.399000000    -4.241000000
H    -1.391000000    -6.352000000    -4.174000000
C     0.381000000    -5.365000000    -3.654000000
O     0.975000000    -6.467000000    -3.205000000
C     1.762000000    -6.359000000    -2.141000000
C     3.141000000    -6.225000000    -2.288000000
H     3.527000000    -6.233000000    -3.304000000
C     3.957000000    -6.076000000    -1.156000000
H     5.031000000    -6.014000000    -1.310000000
C     3.444000000    -5.848000000     0.110000000
H     4.175000000    -5.611000000     0.878000000
C     2.049000000    -5.856000000     0.205000000
C     1.199000000    -6.221000000    -0.857000000
H     0.125000000    -6.270000000    -0.703000000
O    -0.286000000    -6.303000000     4.936000000
H    -0.220000000    -6.717000000     4.076000000
H    -0.404000000    -5.372000000     4.745000000
O    -3.651000000    -7.216000000     1.964000000
H    -2.951000000    -6.643000000     2.275000000
H    -4.419000000    -6.953000000     2.471000000
O    -1.731000000    -5.225000000     2.214000000
H    -1.008000000    -5.789000000     1.941000000
H    -2.054000000    -4.839000000     1.400000000
O    -3.665000000    -6.652000000    -0.792000000
H    -3.249000000    -5.835000000    -0.516000000
H    -3.510000000    -7.257000000    -0.066000000
O    -1.374000000    -1.347000000     3.486000000
H    -2.323000000    -1.244000000     3.409000000
H    -1.012000000    -0.652000000     2.937000000
O    -3.205000000    -8.093000000    -3.034000000
H    -3.267000000    -7.572000000    -2.233000000
H    -4.066000000    -8.007000000    -3.443000000
O    -6.789000000    -4.408000000    -4.550000000
H    -6.193000000    -5.048000000    -4.159000000
H    -7.050000000    -3.847000000    -3.820000000
O    -3.884000000    -2.457000000     5.812000000
H    -4.003000000    -2.210000000     4.895000000
H    -2.970000000    -2.733000000     5.870000000
O    -3.747000000    -9.945000000     0.491000000
H    -4.701000000    -9.950000000     0.408000000
H    -3.560000000    -9.200000000     1.062000000
O    -4.119000000    -1.755000000     3.082000000
H    -5.063000000    -1.769000000     3.238000000
H    -4.006000000    -2.221000000     2.254000000
O    -6.288000000    -5.073000000     5.101000000
H    -7.157000000    -4.686000000     5.203000000
H    -5.904000000    -4.607000000     4.358000000
O    -7.354000000    -5.974000000     0.457000000
H    -6.685000000    -6.174000000     1.111000000
H    -7.279000000    -5.030000000     0.318000000
O     0.180000000    -7.613000000     2.373000000
H     1.094000000    -7.665000000     2.653000000
H    -0.058000000    -8.516000000     2.164000000
O    -5.967000000    -5.920000000    -2.138000000
H    -6.678000000    -5.809000000    -1.507000000
H    -5.208000000    -6.155000000    -1.605000000
O    -6.848000000    -3.504000000    -0.083000000
H    -5.921000000    -3.362000000     0.108000000
H    -7.003000000    -3.018000000    -0.892000000
O    -5.946000000    -8.541000000    -2.986000000
H    -6.115000000    -7.599000000    -3.017000000
H    -6.466000000    -8.901000000    -3.704000000
O    -7.242000000    -2.236000000     2.939000000
H    -7.203000000    -1.397000000     2.479000000
H    -7.566000000    -2.854000000     2.283000000
O    -1.177000000    -3.666000000     4.392000000
H    -1.112000000    -4.107000000     3.545000000
H    -1.149000000    -2.733000000     4.179000000
O    -4.995000000    -4.696000000     2.693000000
H    -4.910000000    -4.161000000     1.904000000
H    -4.134000000    -4.648000000     3.108000000
