201
-1233.11052
C    -1.747000000     2.164000000     3.076000000
H    -1.979000000     2.440000000     2.051000000
C    -0.425000000     2.409000000     3.546000000
C    -0.090000000     2.062000000     4.820000000
H     0.870000000     2.419000000     5.186000000
C     0.588000000     2.985000000     2.567000000
O     0.214000000     4.300000000     2.073000000
H     0.679000000     2.340000000     1.681000000
O     1.834000000     3.163000000     3.206000000
C     2.928000000     2.705000000     2.492000000
C     3.428000000     1.456000000     2.832000000
H     3.081000000     1.051000000     3.779000000
C     4.290000000     0.776000000     1.998000000
O     4.523000000    -0.529000000     2.226000000
C     4.658000000     1.358000000     0.722000000
C     5.600000000     0.630000000    -0.206000000
H     6.167000000     1.352000000    -0.797000000
C     4.777000000    -0.264000000    -1.170000000
C     4.475000000     0.249000000    -2.430000000
H     4.887000000     1.236000000    -2.622000000
H     6.328000000     0.002000000     0.313000000
C     4.141000000     2.604000000     0.393000000
H     4.374000000     3.085000000    -0.553000000
C     3.390000000     3.351000000     1.353000000
C     2.887000000     4.810000000     1.047000000
H     3.683000000     5.365000000     0.545000000
H     2.608000000     5.374000000     1.940000000
C     1.637000000     4.850000000     0.111000000
C     1.784000000     4.925000000    -1.292000000
H     2.761000000     4.965000000    -1.766000000
C     0.374000000     4.619000000     0.685000000
C    -0.774000000     4.509000000    -0.106000000
H    -1.717000000     4.171000000     0.316000000
C    -0.632000000     4.496000000    -1.491000000
O    -1.770000000     4.188000000    -2.241000000
C    -2.053000000     2.846000000    -2.643000000
C    -3.551000000     2.561000000    -2.411000000
C    -4.110000000     1.402000000    -3.020000000
H    -3.522000000     0.867000000    -3.761000000
C    -4.309000000     3.174000000    -1.426000000
H    -3.866000000     3.985000000    -0.853000000
O    -1.725000000     2.841000000    -4.067000000
H    -1.469000000     2.084000000    -2.106000000
C     0.618000000     4.613000000    -2.051000000
C     0.765000000     4.432000000    -3.514000000
H     1.634000000     4.899000000    -3.984000000
H    -0.105000000     4.903000000    -3.976000000
C     0.684000000     2.977000000    -4.110000000
C     1.866000000     2.271000000    -4.182000000
H     2.793000000     2.823000000    -4.053000000
C    -0.527000000     2.259000000    -4.342000000
C    -0.480000000     0.889000000    -4.617000000
H    -1.444000000     0.387000000    -4.648000000
C     0.659000000     0.172000000    -4.787000000
O     0.619000000    -1.190000000    -4.786000000
C     0.823000000    -1.929000000    -3.613000000
C    -0.113000000    -3.139000000    -3.494000000
C    -1.262000000    -3.209000000    -4.261000000
H    -1.636000000    -2.502000000    -4.997000000
C     0.194000000    -4.157000000    -2.593000000
H     1.087000000    -4.161000000    -1.974000000
O     2.184000000    -2.361000000    -3.688000000
H     0.704000000    -1.186000000    -2.811000000
C     1.880000000     0.904000000    -4.547000000
C     3.173000000     0.249000000    -4.564000000
H     3.964000000     0.942000000    -4.856000000
H     3.196000000    -0.536000000    -5.323000000
C     3.592000000    -0.413000000    -3.238000000
C     3.053000000    -1.678000000    -2.874000000
C     3.444000000    -2.268000000    -1.705000000
H     3.021000000    -3.222000000    -1.402000000
C     4.238000000    -1.529000000    -0.780000000
O     4.448000000    -2.048000000     0.502000000
C     3.631000000    -1.504000000     1.586000000
H     2.788000000    -0.955000000     1.140000000
C     2.995000000    -2.530000000     2.548000000
C     2.775000000    -2.164000000     3.850000000
H     3.106000000    -1.172000000     4.145000000
C     2.654000000    -3.760000000     2.067000000
H     2.721000000    -3.960000000     1.000000000
C     2.012000000    -4.692000000     2.930000000
O     1.561000000    -5.958000000     2.566000000
C     1.948000000    -4.315000000     4.295000000
H     1.544000000    -4.983000000     5.051000000
C     2.178000000    -3.052000000     4.757000000
O     2.031000000    -2.865000000     6.111000000
C     1.811000000    -1.649000000     6.744000000
C     0.676000000    -0.917000000     6.519000000
H     0.010000000    -1.237000000     5.722000000
C     2.780000000    -1.182000000     7.602000000
H     3.635000000    -1.842000000     7.723000000
C     2.654000000     0.020000000     8.270000000
H     3.299000000     0.246000000     9.115000000
C     1.435000000     0.766000000     8.180000000
H     1.158000000     1.631000000     8.776000000
C     0.464000000     0.266000000     7.250000000
O    -0.694000000     0.966000000     7.008000000
C    -0.990000000     1.467000000     5.774000000
C    -2.296000000     1.231000000     5.320000000
H    -3.053000000     0.825000000     5.985000000
C    -2.671000000     1.585000000     4.022000000
O    -3.934000000     1.254000000     3.523000000
C    -4.696000000     2.291000000     3.092000000
C    -5.106000000     2.281000000     1.711000000
H    -4.761000000     1.563000000     0.972000000
C    -5.125000000     3.207000000     4.023000000
H    -4.915000000     3.068000000     5.081000000
C    -5.971000000     4.181000000     3.522000000
H    -6.387000000     4.978000000     4.133000000
C    -6.385000000     4.233000000     2.175000000
H    -7.089000000     5.027000000     1.936000000
C    -5.952000000     3.316000000     1.285000000
O    -6.298000000     3.384000000    -0.070000000
C    -5.610000000     2.734000000    -1.182000000
C    -6.188000000     1.583000000    -1.784000000
H    -7.103000000     1.085000000    -1.474000000
C    -5.367000000     0.900000000    -2.689000000
O    -5.744000000    -0.293000000    -3.159000000
C    -5.252000000    -1.001000000    -4.234000000
C    -4.451000000    -2.121000000    -3.961000000
H    -4.194000000    -2.345000000    -2.929000000
C    -5.632000000    -0.712000000    -5.501000000
H    -6.169000000     0.213000000    -5.696000000
C    -5.210000000    -1.615000000    -6.475000000
H    -5.306000000    -1.329000000    -7.520000000
C    -4.440000000    -2.763000000    -6.177000000
H    -4.288000000    -3.426000000    -7.025000000
C    -4.112000000    -3.079000000    -4.914000000
O    -3.418000000    -4.255000000    -4.638000000
C    -2.121000000    -4.255000000    -4.153000000
C    -1.817000000    -5.316000000    -3.346000000
H    -2.459000000    -6.188000000    -3.245000000
C    -0.699000000    -5.237000000    -2.578000000
O    -0.333000000    -6.356000000    -1.843000000
C     0.682000000    -6.453000000    -0.966000000
C     1.876000000    -6.937000000    -1.407000000
H     1.983000000    -7.196000000    -2.457000000
C     2.982000000    -7.239000000    -0.549000000
H     3.950000000    -7.557000000    -0.930000000
C     2.869000000    -6.974000000     0.815000000
H     3.782000000    -7.136000000     1.383000000
C     1.671000000    -6.458000000     1.290000000
C     0.589000000    -6.180000000     0.373000000
H    -0.319000000    -5.725000000     0.759000000
O    -5.069000000    -1.620000000     4.716000000
H    -5.059000000    -1.716000000     3.764000000
H    -4.274000000    -2.064000000     5.010000000
O    -3.197000000    -7.451000000    -0.360000000
H    -2.932000000    -6.712000000     0.187000000
H    -4.123000000    -7.582000000    -0.154000000
O    -1.499000000    -4.566000000     3.711000000
H    -0.981000000    -4.386000000     2.926000000
H    -2.027000000    -5.331000000     3.479000000
O    -5.295000000    -5.273000000    -1.871000000
H    -5.089000000    -4.580000000    -1.245000000
H    -4.835000000    -6.043000000    -1.536000000
O    -1.473000000    -0.972000000     2.857000000
H    -1.945000000    -0.531000000     2.151000000
H    -0.687000000    -1.322000000     2.438000000
O    -2.206000000    -9.961000000     0.705000000
H    -2.368000000    -9.070000000     0.396000000
H    -2.852000000   -10.095000000     1.399000000
O    -3.922000000    -6.140000000     2.978000000
H    -3.560000000    -5.815000000     2.154000000
H    -4.848000000    -5.899000000     2.945000000
O    -8.660000000    -4.655000000     0.629000000
H    -8.238000000    -5.320000000     1.174000000
H    -9.594000000    -4.748000000     0.819000000
O    -8.545000000    -0.834000000    -0.989000000
H    -7.766000000    -1.369000000    -0.840000000
H    -9.205000000    -1.453000000    -1.302000000
O    -6.685000000    -2.745000000    -0.685000000
H    -5.808000000    -2.929000000    -0.349000000
H    -7.227000000    -3.457000000    -0.342000000
O    -7.803000000    -3.301000000    -3.605000000
H    -7.136000000    -3.382000000    -2.924000000
H    -7.653000000    -2.435000000    -3.985000000
O    -0.885000000    -9.224000000    -2.336000000
H    -1.556000000    -8.670000000    -1.937000000
H    -0.479000000    -8.669000000    -3.002000000
O    -7.771000000    -0.786000000     1.872000000
H    -8.016000000    -0.613000000     0.963000000
H    -7.046000000    -1.409000000     1.810000000
O    -4.826000000    -6.676000000    -4.655000000
H    -4.725000000    -5.866000000    -4.156000000
H    -5.065000000    -7.333000000    -4.001000000
O    -6.283000000    -4.496000000     3.699000000
H    -6.187000000    -4.872000000     4.574000000
H    -7.223000000    -4.344000000     3.605000000
O    -2.339000000    -2.332000000     5.248000000
H    -2.316000000    -1.664000000     4.563000000
H    -1.994000000    -3.119000000     4.827000000
O    -8.299000000    -6.001000000    -1.905000000
H    -8.444000000    -5.442000000    -1.141000000
H    -7.473000000    -5.690000000    -2.276000000
O    -5.674000000    -2.473000000     2.093000000
H    -5.232000000    -2.845000000     1.330000000
H    -5.864000000    -3.227000000     2.652000000
O    -5.647000000    -8.576000000    -1.158000000
H    -6.251000000    -8.359000000    -1.868000000
H    -5.192000000    -9.361000000    -1.462000000
