201
-1208.57004
C    -1.578000000     2.379000000     3.132000000
H    -1.780000000     2.524000000     2.074000000
C    -0.300000000     2.726000000     3.628000000
C     0.081000000     2.314000000     4.940000000
H     1.127000000     2.434000000     5.210000000
C     0.677000000     3.290000000     2.631000000
O     0.120000000     4.433000000     1.905000000
H     0.839000000     2.453000000     1.935000000
O     1.965000000     3.615000000     3.262000000
C     3.003000000     3.122000000     2.586000000
C     3.478000000     1.871000000     3.096000000
H     3.327000000     1.548000000     4.123000000
C     4.176000000     1.067000000     2.164000000
O     4.302000000    -0.260000000     2.589000000
C     4.587000000     1.609000000     0.953000000
C     5.467000000     0.783000000    -0.007000000
H     6.087000000     1.417000000    -0.644000000
C     4.683000000    -0.160000000    -0.998000000
C     4.400000000     0.239000000    -2.309000000
H     4.639000000     1.253000000    -2.618000000
H     6.234000000     0.134000000     0.419000000
C     4.188000000     2.831000000     0.525000000
H     4.486000000     3.171000000    -0.464000000
C     3.305000000     3.579000000     1.283000000
C     2.706000000     4.860000000     0.684000000
H     3.479000000     5.320000000     0.066000000
H     2.391000000     5.544000000     1.475000000
C     1.430000000     4.597000000    -0.065000000
C     1.509000000     4.357000000    -1.437000000
H     2.503000000     4.418000000    -1.872000000
C     0.162000000     4.441000000     0.556000000
C    -0.997000000     4.395000000    -0.138000000
H    -1.917000000     4.111000000     0.367000000
C    -0.880000000     4.209000000    -1.459000000
O    -2.074000000     3.920000000    -2.026000000
C    -2.371000000     2.511000000    -2.405000000
C    -3.821000000     2.021000000    -2.250000000
C    -4.336000000     1.044000000    -3.092000000
H    -3.664000000     0.642000000    -3.847000000
C    -4.646000000     2.674000000    -1.355000000
H    -4.175000000     3.460000000    -0.772000000
O    -1.923000000     2.360000000    -3.780000000
H    -1.726000000     1.862000000    -1.795000000
C     0.323000000     4.269000000    -2.145000000
C     0.430000000     4.085000000    -3.642000000
H     1.335000000     4.568000000    -4.018000000
H    -0.355000000     4.677000000    -4.117000000
C     0.527000000     2.649000000    -3.992000000
C     1.808000000     2.077000000    -4.142000000
H     2.710000000     2.662000000    -3.980000000
C    -0.640000000     1.897000000    -4.135000000
C    -0.540000000     0.530000000    -4.359000000
H    -1.429000000    -0.092000000    -4.427000000
C     0.757000000    -0.052000000    -4.593000000
O     0.832000000    -1.403000000    -4.807000000
C     0.968000000    -2.153000000    -3.582000000
C    -0.020000000    -3.357000000    -3.567000000
C    -1.350000000    -3.264000000    -4.043000000
H    -1.651000000    -2.324000000    -4.497000000
C     0.279000000    -4.490000000    -2.817000000
H     1.246000000    -4.574000000    -2.329000000
O     2.272000000    -2.633000000    -3.415000000
H     0.694000000    -1.519000000    -2.726000000
C     1.898000000     0.698000000    -4.407000000
C     3.194000000    -0.054000000    -4.530000000
H     3.945000000     0.493000000    -5.103000000
H     3.093000000    -0.897000000    -5.218000000
C     3.652000000    -0.605000000    -3.188000000
C     3.139000000    -1.782000000    -2.725000000
C     3.208000000    -2.020000000    -1.349000000
H     2.775000000    -2.906000000    -0.892000000
C     4.060000000    -1.313000000    -0.565000000
O     4.303000000    -1.753000000     0.741000000
C     3.532000000    -1.323000000     1.882000000
H     2.595000000    -0.874000000     1.520000000
C     3.146000000    -2.452000000     2.818000000
C     3.184000000    -2.275000000     4.186000000
H     3.466000000    -1.345000000     4.674000000
C     2.501000000    -3.614000000     2.292000000
H     2.340000000    -3.731000000     1.223000000
C     1.994000000    -4.627000000     3.093000000
O     1.254000000    -5.694000000     2.671000000
C     1.797000000    -4.287000000     4.468000000
H     1.276000000    -4.990000000     5.113000000
C     2.402000000    -3.176000000     4.966000000
O     2.191000000    -2.820000000     6.296000000
C     2.053000000    -1.494000000     6.746000000
C     0.860000000    -0.851000000     6.615000000
H     0.035000000    -1.404000000     6.174000000
C     3.118000000    -0.956000000     7.431000000
H     3.942000000    -1.644000000     7.601000000
C     3.039000000     0.416000000     7.826000000
H     3.951000000     0.857000000     8.220000000
C     1.789000000     1.059000000     7.699000000
H     1.726000000     2.143000000     7.739000000
C     0.727000000     0.452000000     7.117000000
O    -0.396000000     1.077000000     6.876000000
C    -0.819000000     1.649000000     5.685000000
C    -2.140000000     1.451000000     5.247000000
H    -2.871000000     1.002000000     5.915000000
C    -2.528000000     1.891000000     3.983000000
O    -3.799000000     1.545000000     3.450000000
C    -4.676000000     2.407000000     2.859000000
C    -5.304000000     2.130000000     1.598000000
H    -4.921000000     1.237000000     1.110000000
C    -5.033000000     3.577000000     3.527000000
H    -4.577000000     3.706000000     4.505000000
C    -5.912000000     4.453000000     2.980000000
H    -6.093000000     5.384000000     3.510000000
C    -6.578000000     4.129000000     1.803000000
H    -7.209000000     4.879000000     1.333000000
C    -6.163000000     3.046000000     1.046000000
O    -6.715000000     2.828000000    -0.164000000
C    -5.961000000     2.247000000    -1.127000000
C    -6.509000000     1.295000000    -2.024000000
H    -7.546000000     0.986000000    -1.914000000
C    -5.682000000     0.716000000    -3.036000000
O    -6.211000000    -0.256000000    -3.857000000
C    -5.394000000    -1.102000000    -4.635000000
C    -4.996000000    -2.312000000    -4.176000000
H    -5.342000000    -2.739000000    -3.238000000
C    -4.836000000    -0.602000000    -5.806000000
H    -5.125000000     0.374000000    -6.188000000
C    -3.933000000    -1.302000000    -6.600000000
H    -3.640000000    -0.870000000    -7.553000000
C    -3.497000000    -2.502000000    -6.087000000
H    -2.799000000    -3.079000000    -6.688000000
C    -4.042000000    -3.057000000    -4.928000000
O    -3.531000000    -4.206000000    -4.348000000
C    -2.245000000    -4.293000000    -3.909000000
C    -1.876000000    -5.409000000    -3.163000000
H    -2.675000000    -6.109000000    -2.932000000
C    -0.559000000    -5.561000000    -2.676000000
O    -0.333000000    -6.648000000    -1.928000000
C     0.640000000    -6.655000000    -0.920000000
C     1.951000000    -6.884000000    -1.308000000
H     2.170000000    -7.278000000    -2.297000000
C     2.981000000    -6.817000000    -0.410000000
H     4.008000000    -7.037000000    -0.691000000
C     2.646000000    -6.552000000     0.978000000
H     3.486000000    -6.408000000     1.653000000
C     1.364000000    -6.245000000     1.370000000
C     0.300000000    -6.210000000     0.394000000
H    -0.652000000    -5.805000000     0.728000000
O    -4.927000000    -1.576000000     3.598000000
H    -5.181000000    -1.442000000     2.684000000
H    -4.110000000    -2.071000000     3.549000000
O    -4.561000000    -7.239000000     0.863000000
H    -3.903000000    -6.571000000     1.057000000
H    -5.387000000    -6.757000000     0.820000000
O    -1.698000000    -5.717000000     4.351000000
H    -1.329000000    -6.076000000     3.545000000
H    -2.603000000    -5.501000000     4.125000000
O    -3.765000000    -8.921000000     3.108000000
H    -2.881000000    -9.185000000     2.855000000
H    -3.954000000    -8.160000000     2.558000000
O    -4.934000000    -5.588000000     6.065000000
H    -4.145000000    -5.480000000     6.596000000
H    -4.769000000    -5.064000000     5.282000000
O    -5.506000000    -5.815000000    -2.397000000
H    -4.862000000    -5.310000000    -1.900000000
H    -5.133000000    -6.695000000    -2.448000000
O    -1.534000000    -1.335000000     3.331000000
H    -1.949000000    -0.473000000     3.337000000
H    -1.457000000    -1.558000000     2.403000000
O    -0.458000000    -8.394000000     3.085000000
H     0.307000000    -7.824000000     3.159000000
H    -0.093000000    -9.271000000     2.962000000
O    -2.995000000    -8.986000000    -0.312000000
H    -3.781000000    -8.489000000    -0.082000000
H    -2.270000000    -8.442000000    -0.005000000
O    -3.917000000    -4.694000000     3.378000000
H    -3.659000000    -4.818000000     2.465000000
H    -4.871000000    -4.761000000     3.369000000
O    -8.552000000    -5.636000000     0.427000000
H    -8.288000000    -6.550000000     0.323000000
H    -9.359000000    -5.677000000     0.941000000
O    -6.061000000    -4.051000000     0.400000000
H    -5.333000000    -4.263000000    -0.184000000
H    -6.810000000    -4.516000000     0.028000000
O    -1.495000000    -9.435000000    -2.623000000
H    -1.830000000    -9.364000000    -1.729000000
H    -1.198000000    -8.550000000    -2.837000000
O    -8.200000000    -1.371000000     1.925000000
H    -8.585000000    -1.662000000     1.098000000
H    -7.282000000    -1.202000000     1.715000000
O    -6.721000000    -4.869000000    -4.745000000
H    -6.349000000    -5.126000000    -5.588000000
H    -6.033000000    -5.064000000    -4.109000000
O    -6.453000000    -4.770000000     2.904000000
H    -7.392000000    -4.584000000     2.907000000
H    -6.129000000    -4.357000000     2.104000000
O    -1.201000000    -3.153000000     5.399000000
H    -1.449000000    -2.431000000     4.822000000
H    -1.274000000    -3.934000000     4.851000000
O    -8.840000000    -5.556000000    -2.219000000
H    -8.657000000    -5.507000000    -1.281000000
H    -7.980000000    -5.660000000    -2.626000000
O    -5.738000000    -1.450000000     0.943000000
H    -5.351000000    -1.251000000     0.091000000
H    -5.883000000    -2.396000000     0.925000000
