201
-1230.86012
C    -2.382000000     3.033000000     4.123000000
H    -2.743000000     3.772000000     3.412000000
C    -1.035000000     2.595000000     4.002000000
C    -0.549000000     1.580000000     4.785000000
H     0.489000000     1.257000000     4.786000000
C    -0.260000000     3.169000000     2.829000000
O    -0.740000000     4.452000000     2.322000000
H    -0.181000000     2.451000000     2.000000000
O     1.066000000     3.495000000     3.275000000
C     2.058000000     3.088000000     2.364000000
C     2.716000000     1.872000000     2.597000000
H     2.386000000     1.317000000     3.471000000
C     3.764000000     1.416000000     1.799000000
O     4.377000000     0.274000000     2.130000000
C     4.175000000     2.312000000     0.752000000
C     5.316000000     1.853000000    -0.219000000
H     5.754000000     2.694000000    -0.759000000
C     4.753000000     0.871000000    -1.259000000
C     4.303000000     1.374000000    -2.430000000
H     4.426000000     2.414000000    -2.722000000
H     6.146000000     1.483000000     0.386000000
C     3.534000000     3.485000000     0.505000000
H     3.801000000     4.085000000    -0.360000000
C     2.479000000     3.924000000     1.291000000
C     1.802000000     5.243000000     1.062000000
H     2.347000000     5.981000000     0.470000000
H     1.379000000     5.680000000     1.969000000
C     0.558000000     4.876000000     0.302000000
C     0.608000000     4.840000000    -1.089000000
H     1.535000000     5.052000000    -1.616000000
C    -0.659000000     4.506000000     0.969000000
C    -1.825000000     4.244000000     0.211000000
H    -2.769000000     3.965000000     0.674000000
C    -1.777000000     4.198000000    -1.251000000
O    -2.850000000     3.693000000    -1.969000000
C    -2.744000000     2.286000000    -2.489000000
C    -4.016000000     1.485000000    -2.109000000
C    -4.587000000     0.632000000    -3.008000000
H    -4.172000000     0.544000000    -4.008000000
C    -4.503000000     1.568000000    -0.822000000
H    -4.032000000     2.156000000    -0.038000000
O    -2.359000000     2.162000000    -3.872000000
H    -1.981000000     1.753000000    -1.902000000
C    -0.541000000     4.441000000    -1.808000000
C    -0.423000000     4.338000000    -3.357000000
H     0.312000000     5.099000000    -3.627000000
H    -1.400000000     4.611000000    -3.764000000
C    -0.021000000     2.938000000    -3.804000000
C     1.342000000     2.685000000    -4.046000000
H     2.074000000     3.451000000    -3.800000000
C    -1.005000000     1.958000000    -4.060000000
C    -0.569000000     0.743000000    -4.550000000
H    -1.302000000    -0.048000000    -4.686000000
C     0.768000000     0.470000000    -4.704000000
O     1.081000000    -0.854000000    -4.959000000
C     1.456000000    -1.645000000    -3.799000000
C     0.676000000    -2.959000000    -3.547000000
C    -0.670000000    -3.138000000    -3.952000000
H    -1.000000000    -2.381000000    -4.659000000
C     1.358000000    -4.046000000    -2.982000000
H     2.440000000    -3.974000000    -2.903000000
O     2.902000000    -1.750000000    -3.840000000
H     1.294000000    -1.064000000    -2.880000000
C     1.762000000     1.455000000    -4.493000000
C     3.212000000     1.078000000    -4.661000000
H     3.685000000     2.052000000    -4.804000000
H     3.361000000     0.408000000    -5.510000000
C     3.679000000     0.515000000    -3.369000000
C     3.665000000    -0.914000000    -3.140000000
C     4.003000000    -1.358000000    -1.846000000
H     3.656000000    -2.345000000    -1.549000000
C     4.541000000    -0.495000000    -0.952000000
O     4.846000000    -1.104000000     0.237000000
C     3.929000000    -0.913000000     1.366000000
H     2.925000000    -0.604000000     1.041000000
C     3.741000000    -2.083000000     2.304000000
C     3.332000000    -1.894000000     3.629000000
H     3.313000000    -0.859000000     3.960000000
C     3.683000000    -3.381000000     1.729000000
H     3.958000000    -3.522000000     0.687000000
C     3.127000000    -4.376000000     2.499000000
O     3.199000000    -5.690000000     1.996000000
C     2.823000000    -4.194000000     3.851000000
H     2.459000000    -4.982000000     4.505000000
C     2.972000000    -2.983000000     4.499000000
O     2.643000000    -2.933000000     5.751000000
C     2.078000000    -1.885000000     6.526000000
C     0.877000000    -1.258000000     6.131000000
H     0.421000000    -1.510000000     5.176000000
C     2.656000000    -1.607000000     7.758000000
H     3.601000000    -2.032000000     8.087000000
C     1.976000000    -0.738000000     8.614000000
H     2.189000000    -0.490000000     9.651000000
C     0.867000000    -0.105000000     8.226000000
H     0.415000000     0.560000000     8.957000000
C     0.317000000    -0.334000000     6.943000000
O    -0.991000000     0.173000000     6.752000000
C    -1.343000000     1.098000000     5.794000000
C    -2.692000000     1.519000000     5.904000000
H    -3.324000000     1.095000000     6.680000000
C    -3.201000000     2.431000000     5.014000000
O    -4.569000000     2.653000000     5.010000000
C    -5.286000000     2.820000000     3.852000000
C    -5.376000000     1.772000000     2.896000000
H    -4.866000000     0.822000000     3.038000000
C    -6.074000000     3.956000000     3.644000000
H    -6.073000000     4.675000000     4.459000000
C    -6.784000000     4.179000000     2.463000000
H    -7.308000000     5.101000000     2.225000000
C    -6.713000000     3.170000000     1.490000000
H    -7.252000000     3.250000000     0.549000000
C    -6.073000000     1.961000000     1.728000000
O    -6.160000000     0.907000000     0.833000000
C    -5.613000000     0.808000000    -0.473000000
C    -6.273000000    -0.046000000    -1.374000000
H    -6.937000000    -0.781000000    -0.926000000
C    -5.741000000    -0.080000000    -2.665000000
O    -6.071000000    -1.138000000    -3.487000000
C    -5.250000000    -1.806000000    -4.411000000
C    -4.398000000    -2.879000000    -3.984000000
H    -4.349000000    -3.191000000    -2.944000000
C    -5.249000000    -1.467000000    -5.756000000
H    -5.933000000    -0.706000000    -6.123000000
C    -4.341000000    -2.018000000    -6.678000000
H    -4.427000000    -1.805000000    -7.741000000
C    -3.490000000    -3.043000000    -6.205000000
H    -2.740000000    -3.531000000    -6.823000000
C    -3.549000000    -3.485000000    -4.888000000
O    -2.710000000    -4.487000000    -4.445000000
C    -1.390000000    -4.329000000    -3.879000000
C    -0.702000000    -5.345000000    -3.245000000
H    -1.093000000    -6.358000000    -3.298000000
C     0.660000000    -5.259000000    -2.755000000
O     1.359000000    -6.413000000    -2.432000000
C     2.351000000    -6.508000000    -1.504000000
C     3.514000000    -7.199000000    -1.794000000
H     3.517000000    -7.708000000    -2.754000000
C     4.605000000    -7.308000000    -0.956000000
H     5.530000000    -7.803000000    -1.241000000
C     4.471000000    -6.765000000     0.305000000
H     5.259000000    -6.936000000     1.034000000
C     3.351000000    -5.998000000     0.658000000
C     2.233000000    -5.935000000    -0.230000000
H     1.271000000    -5.552000000     0.105000000
O    -3.699000000    -2.467000000     2.830000000
H    -4.581000000    -2.258000000     2.523000000
H    -3.418000000    -3.194000000     2.274000000
O    -2.762000000    -8.756000000     2.624000000
H    -2.581000000    -9.331000000     1.881000000
H    -3.163000000    -7.979000000     2.234000000
O    -2.278000000    -2.789000000     5.330000000
H    -2.812000000    -2.597000000     4.559000000
H    -2.028000000    -3.708000000     5.225000000
O    -4.060000000    -6.245000000    -2.432000000
H    -3.797000000    -5.769000000    -1.643000000
H    -3.688000000    -5.737000000    -3.153000000
O    -2.670000000    -9.236000000    -0.291000000
H    -3.127000000    -9.598000000    -1.051000000
H    -1.742000000    -9.299000000    -0.518000000
O    -1.658000000    -5.387000000     5.308000000
H    -2.385000000    -5.987000000     5.142000000
H    -1.253000000    -5.260000000     4.450000000
O    -5.061000000    -4.845000000     4.165000000
H    -4.711000000    -4.945000000     3.280000000
H    -4.666000000    -5.561000000     4.662000000
O    -0.370000000    -5.262000000     2.959000000
H    -0.953000000    -4.818000000     2.344000000
H     0.296000000    -5.671000000     2.406000000
O    -6.837000000    -6.571000000     1.076000000
H    -7.084000000    -7.495000000     1.102000000
H    -5.888000000    -6.580000000     0.945000000
O    -5.886000000    -2.685000000     5.792000000
H    -5.083000000    -2.314000000     6.157000000
H    -5.583000000    -3.319000000     5.142000000
O    -5.773000000    -3.850000000    -0.551000000
H    -4.818000000    -3.855000000    -0.496000000
H    -6.047000000    -4.605000000    -0.030000000
O    -7.709000000    -5.262000000     3.171000000
H    -6.919000000    -4.839000000     3.508000000
H    -7.427000000    -5.683000000     2.359000000
O    -8.316000000    -3.456000000    -1.736000000
H    -8.134000000    -2.786000000    -2.394000000
H    -7.509000000    -3.514000000    -1.224000000
O    -6.254000000    -1.745000000     1.889000000
H    -6.316000000    -1.860000000     0.941000000
H    -6.252000000    -0.797000000     2.017000000
O    -6.337000000    -6.470000000    -3.844000000
H    -6.438000000    -7.421000000    -3.803000000
H    -5.513000000    -6.296000000    -3.388000000
O    -5.279000000    -8.764000000    -2.367000000
H    -4.827000000    -7.922000000    -2.410000000
H    -5.189000000    -9.037000000    -1.454000000
O    -4.193000000    -6.604000000     0.784000000
H    -3.487000000    -5.958000000     0.802000000
H    -3.836000000    -7.334000000     0.278000000
O    -3.552000000    -7.152000000     5.048000000
H    -3.238000000    -7.693000000     4.323000000
H    -4.396000000    -7.536000000     5.286000000
O    -2.385000000     0.523000000     1.756000000
H    -1.977000000    -0.120000000     1.176000000
H    -2.758000000     0.001000000     2.467000000
