201
-1259.28184
C    -3.029000000     2.054000000     3.299000000
H    -3.170000000     2.568000000     2.352000000
C    -1.704000000     2.080000000     3.764000000
C    -1.411000000     1.267000000     4.792000000
H    -0.404000000     1.238000000     5.201000000
C    -0.692000000     2.940000000     2.980000000
O    -1.305000000     4.087000000     2.408000000
H    -0.257000000     2.298000000     2.200000000
O     0.407000000     3.246000000     3.840000000
C     1.722000000     3.023000000     3.339000000
C     2.413000000     1.853000000     3.681000000
H     2.022000000     1.175000000     4.435000000
C     3.533000000     1.463000000     2.997000000
O     3.949000000     0.202000000     3.271000000
C     4.110000000     2.264000000     2.011000000
C     5.291000000     1.700000000     1.222000000
H     5.996000000     2.464000000     0.888000000
C     4.754000000     0.894000000     0.065000000
C     4.668000000     1.483000000    -1.195000000
H     4.959000000     2.517000000    -1.362000000
H     5.794000000     0.979000000     1.870000000
C     3.519000000     3.480000000     1.783000000
H     3.961000000     4.085000000     0.995000000
C     2.311000000     3.881000000     2.439000000
C     1.584000000     5.083000000     1.965000000
H     2.213000000     5.839000000     1.490000000
H     0.999000000     5.570000000     2.747000000
C     0.505000000     4.795000000     0.845000000
C     0.853000000     4.891000000    -0.536000000
H     1.893000000     5.084000000    -0.785000000
C    -0.870000000     4.433000000     1.107000000
C    -1.821000000     4.234000000     0.108000000
H    -2.809000000     3.879000000     0.391000000
C    -1.405000000     4.181000000    -1.215000000
O    -2.329000000     3.682000000    -2.103000000
C    -2.139000000     2.365000000    -2.675000000
C    -3.395000000     1.496000000    -2.789000000
C    -3.490000000     0.369000000    -3.594000000
H    -2.617000000     0.061000000    -4.164000000
C    -4.513000000     1.773000000    -1.991000000
H    -4.489000000     2.626000000    -1.317000000
O    -1.517000000     2.602000000    -3.950000000
H    -1.400000000     1.827000000    -2.064000000
C    -0.105000000     4.648000000    -1.528000000
C     0.230000000     4.715000000    -3.014000000
H     1.050000000     5.430000000    -3.114000000
H    -0.544000000     5.152000000    -3.647000000
C     0.705000000     3.415000000    -3.574000000
C     2.077000000     3.098000000    -3.478000000
H     2.801000000     3.778000000    -3.036000000
C    -0.134000000     2.431000000    -4.037000000
C     0.272000000     1.199000000    -4.453000000
H    -0.470000000     0.505000000    -4.839000000
C     1.646000000     0.865000000    -4.395000000
O     1.938000000    -0.427000000    -4.750000000
C     2.247000000    -1.349000000    -3.641000000
C     1.642000000    -2.721000000    -3.842000000
C     0.526000000    -2.850000000    -4.678000000
H     0.005000000    -1.969000000    -5.044000000
C     2.196000000    -3.846000000    -3.210000000
H     3.189000000    -3.879000000    -2.770000000
O     3.615000000    -1.432000000    -3.337000000
H     1.770000000    -0.954000000    -2.732000000
C     2.500000000     1.807000000    -3.871000000
C     4.032000000     1.380000000    -3.684000000
H     4.671000000     2.259000000    -3.793000000
H     4.333000000     0.716000000    -4.497000000
C     4.263000000     0.745000000    -2.343000000
C     3.982000000    -0.655000000    -2.246000000
C     3.959000000    -1.191000000    -0.999000000
H     3.886000000    -2.275000000    -1.024000000
C     4.405000000    -0.474000000     0.126000000
O     4.432000000    -1.105000000     1.368000000
C     3.410000000    -0.740000000     2.336000000
H     2.540000000    -0.344000000     1.791000000
C     2.857000000    -1.973000000     2.998000000
C     2.321000000    -1.902000000     4.278000000
H     2.454000000    -1.066000000     4.959000000
C     2.618000000    -3.122000000     2.247000000
H     2.890000000    -3.223000000     1.200000000
C     1.817000000    -4.114000000     2.708000000
O     1.506000000    -5.236000000     1.918000000
C     1.325000000    -4.067000000     3.932000000
H     0.819000000    -4.953000000     4.306000000
C     1.641000000    -3.039000000     4.832000000
O     1.375000000    -3.182000000     6.189000000
C     0.785000000    -2.188000000     6.879000000
C    -0.354000000    -1.594000000     6.363000000
H    -0.793000000    -2.052000000     5.479000000
C     1.358000000    -1.690000000     8.046000000
H     2.197000000    -2.201000000     8.512000000
C     0.728000000    -0.629000000     8.692000000
H     1.260000000    -0.170000000     9.521000000
C    -0.490000000    -0.081000000     8.235000000
H    -1.005000000     0.754000000     8.703000000
C    -0.965000000    -0.603000000     7.021000000
O    -2.236000000    -0.240000000     6.593000000
C    -2.421000000     0.593000000     5.497000000
C    -3.746000000     0.602000000     5.022000000
H    -4.535000000     0.011000000     5.479000000
C    -4.004000000     1.315000000     3.875000000
O    -5.322000000     1.320000000     3.473000000
C    -5.758000000     1.981000000     2.296000000
C    -5.874000000     1.325000000     1.044000000
H    -5.556000000     0.296000000     0.895000000
C    -6.207000000     3.234000000     2.568000000
H    -6.020000000     3.663000000     3.549000000
C    -6.806000000     3.905000000     1.519000000
H    -7.334000000     4.839000000     1.691000000
C    -6.855000000     3.353000000     0.189000000
H    -7.356000000     3.820000000    -0.656000000
C    -6.492000000     2.030000000     0.014000000
O    -6.766000000     1.420000000    -1.161000000
C    -5.696000000     1.002000000    -1.907000000
C    -5.785000000     0.015000000    -2.860000000
H    -6.727000000    -0.484000000    -3.074000000
C    -4.697000000    -0.384000000    -3.652000000
O    -4.887000000    -1.410000000    -4.542000000
C    -3.929000000    -1.808000000    -5.428000000
C    -3.087000000    -2.820000000    -5.007000000
H    -3.312000000    -3.445000000    -4.147000000
C    -3.767000000    -1.143000000    -6.652000000
H    -4.417000000    -0.307000000    -6.900000000
C    -2.927000000    -1.716000000    -7.597000000
H    -2.928000000    -1.377000000    -8.630000000
C    -2.042000000    -2.708000000    -7.199000000
H    -1.401000000    -3.211000000    -7.918000000
C    -2.134000000    -3.290000000    -5.919000000
O    -1.171000000    -4.220000000    -5.621000000
C    -0.026000000    -4.109000000    -4.834000000
C     0.473000000    -5.216000000    -4.204000000
H    -0.065000000    -6.144000000    -4.381000000
C     1.560000000    -5.110000000    -3.386000000
O     1.990000000    -6.317000000    -2.795000000
C     2.433000000    -6.379000000    -1.464000000
C     3.501000000    -7.229000000    -1.188000000
H     3.927000000    -7.829000000    -1.988000000
C     3.932000000    -7.366000000     0.150000000
H     4.822000000    -7.958000000     0.347000000
C     3.318000000    -6.585000000     1.185000000
H     3.478000000    -6.884000000     2.218000000
C     2.216000000    -5.791000000     0.845000000
C     1.732000000    -5.736000000    -0.471000000
H     0.798000000    -5.199000000    -0.620000000
O    -4.119000000    -4.009000000     1.929000000
H    -3.592000000    -4.571000000     1.362000000
H    -4.864000000    -3.751000000     1.386000000
O    -3.830000000    -6.393000000    -6.129000000
H    -3.986000000    -7.197000000    -6.623000000
H    -3.255000000    -6.660000000    -5.411000000
O    -1.374000000   -10.370000000    -2.879000000
H    -1.905000000    -9.785000000    -2.338000000
H    -0.481000000   -10.251000000    -2.556000000
O    -2.962000000    -4.674000000     4.835000000
H    -3.443000000    -4.331000000     4.082000000
H    -3.400000000    -5.500000000     5.043000000
O    -1.670000000    -8.097000000    -1.257000000
H    -1.762000000    -7.150000000    -1.361000000
H    -1.757000000    -8.244000000    -0.315000000
O    -5.160000000    -2.314000000     3.741000000
H    -4.781000000    -2.377000000     4.618000000
H    -4.602000000    -2.871000000     3.198000000
O    -0.459000000    -8.183000000     4.094000000
H    -1.063000000    -8.899000000     3.897000000
H    -0.475000000    -7.635000000     3.309000000
O    -3.814000000    -8.999000000     2.174000000
H    -4.516000000    -9.189000000     2.797000000
H    -4.267000000    -8.680000000     1.393000000
O    -0.647000000    -7.019000000     1.533000000
H    -1.379000000    -6.489000000     1.218000000
H     0.115000000    -6.444000000     1.458000000
O    -8.022000000    -7.185000000     1.187000000
H    -7.162000000    -6.814000000     0.991000000
H    -8.599000000    -6.424000000     1.265000000
O    -5.677000000    -2.896000000    -0.056000000
H    -5.392000000    -3.414000000    -0.809000000
H    -5.238000000    -2.053000000    -0.166000000
O    -4.880000000    -4.475000000    -1.993000000
H    -5.357000000    -5.305000000    -2.007000000
H    -3.961000000    -4.729000000    -1.907000000
O    -6.008000000    -6.911000000    -2.506000000
H    -6.812000000    -7.430000000    -2.467000000
H    -5.517000000    -7.285000000    -3.237000000
O    -4.233000000    -9.973000000    -1.712000000
H    -4.004000000   -10.753000000    -1.207000000
H    -4.626000000    -9.380000000    -1.071000000
O    -2.357000000    -7.626000000    -4.336000000
H    -1.900000000    -8.458000000    -4.211000000
H    -2.023000000    -7.063000000    -3.639000000
O    -4.602000000    -7.701000000    -0.075000000
H    -4.071000000    -6.909000000     0.010000000
H    -5.068000000    -7.588000000    -0.904000000
O    -6.966000000    -3.431000000    -3.297000000
H    -6.139000000    -3.700000000    -2.896000000
H    -6.721000000    -2.735000000    -3.906000000
O     0.142000000    -9.588000000     0.707000000
H    -0.059000000    -9.970000000     1.561000000
H     0.191000000    -8.646000000     0.871000000
O    -3.491000000    -1.332000000     0.927000000
H    -4.030000000    -1.814000000     1.555000000
H    -2.741000000    -1.904000000     0.767000000
