201
-1243.24329
C    -2.138000000     2.011000000     3.392000000
H    -2.533000000     2.371000000     2.445000000
C    -0.929000000     2.384000000     3.932000000
C    -0.609000000     1.948000000     5.252000000
H     0.387000000     2.207000000     5.603000000
C     0.073000000     3.068000000     2.990000000
O    -0.564000000     4.129000000     2.337000000
H     0.435000000     2.345000000     2.244000000
O     1.268000000     3.549000000     3.754000000
C     2.407000000     3.215000000     3.135000000
C     2.979000000     1.982000000     3.434000000
H     2.707000000     1.472000000     4.354000000
C     4.022000000     1.450000000     2.694000000
O     4.268000000     0.123000000     2.978000000
C     4.439000000     2.059000000     1.539000000
C     5.419000000     1.413000000     0.550000000
H     6.143000000     2.087000000     0.087000000
C     4.683000000     0.705000000    -0.556000000
C     4.426000000     1.235000000    -1.799000000
H     4.725000000     2.268000000    -1.960000000
H     5.965000000     0.651000000     1.109000000
C     3.821000000     3.258000000     1.163000000
H     4.079000000     3.785000000     0.248000000
C     2.742000000     3.856000000     1.921000000
C     2.037000000     5.072000000     1.458000000
H     2.729000000     5.840000000     1.107000000
H     1.587000000     5.554000000     2.329000000
C     0.883000000     4.737000000     0.507000000
C     1.037000000     4.814000000    -0.934000000
H     2.001000000     5.079000000    -1.359000000
C    -0.331000000     4.275000000     0.981000000
C    -1.398000000     3.981000000     0.111000000
H    -2.322000000     3.710000000     0.615000000
C    -1.233000000     4.125000000    -1.249000000
O    -2.318000000     3.784000000    -2.003000000
C    -2.358000000     2.503000000    -2.652000000
C    -3.732000000     1.887000000    -2.716000000
C    -4.079000000     0.916000000    -3.664000000
H    -3.478000000     0.863000000    -4.569000000
C    -4.611000000     2.068000000    -1.614000000
H    -4.270000000     2.691000000    -0.791000000
O    -1.709000000     2.574000000    -3.952000000
H    -1.747000000     1.871000000    -1.990000000
C    -0.047000000     4.578000000    -1.801000000
C     0.199000000     4.622000000    -3.255000000
H     1.102000000     5.213000000    -3.425000000
H    -0.576000000     5.116000000    -3.844000000
C     0.612000000     3.228000000    -3.773000000
C     1.958000000     2.771000000    -3.785000000
H     2.768000000     3.435000000    -3.493000000
C    -0.380000000     2.306000000    -4.196000000
C    -0.032000000     1.101000000    -4.695000000
H    -0.877000000     0.424000000    -4.790000000
C     1.293000000     0.658000000    -4.696000000
O     1.586000000    -0.602000000    -5.059000000
C     1.640000000    -1.547000000    -3.881000000
C     1.018000000    -2.874000000    -4.090000000
C    -0.073000000    -2.935000000    -4.950000000
H    -0.340000000    -2.051000000    -5.523000000
C     1.309000000    -3.924000000    -3.258000000
H     2.141000000    -3.868000000    -2.560000000
O     3.090000000    -1.698000000    -3.602000000
H     1.107000000    -1.089000000    -3.035000000
C     2.327000000     1.513000000    -4.329000000
C     3.733000000     1.062000000    -4.224000000
H     4.412000000     1.897000000    -4.410000000
H     3.835000000     0.416000000    -5.099000000
C     3.986000000     0.452000000    -2.864000000
C     3.648000000    -0.914000000    -2.612000000
C     3.616000000    -1.415000000    -1.311000000
H     3.204000000    -2.409000000    -1.153000000
C     4.194000000    -0.602000000    -0.295000000
O     4.242000000    -1.209000000     0.961000000
C     3.484000000    -0.717000000     2.110000000
H     2.668000000    -0.131000000     1.661000000
C     2.786000000    -1.876000000     2.840000000
C     2.705000000    -1.932000000     4.249000000
H     3.147000000    -1.223000000     4.944000000
C     2.117000000    -2.906000000     2.133000000
H     2.150000000    -2.723000000     1.062000000
C     1.550000000    -3.988000000     2.747000000
O     0.951000000    -5.014000000     1.946000000
C     1.473000000    -4.015000000     4.098000000
H     0.990000000    -4.842000000     4.612000000
C     1.981000000    -2.991000000     4.837000000
O     1.752000000    -3.038000000     6.169000000
C     1.413000000    -1.980000000     6.988000000
C     0.341000000    -1.128000000     6.672000000
H    -0.151000000    -1.221000000     5.707000000
C     1.990000000    -1.869000000     8.263000000
H     2.607000000    -2.652000000     8.697000000
C     1.621000000    -0.854000000     9.129000000
H     1.916000000    -0.777000000    10.172000000
C     0.564000000    -0.003000000     8.745000000
H     0.272000000     0.755000000     9.467000000
C    -0.062000000    -0.147000000     7.542000000
O    -1.062000000     0.724000000     7.237000000
C    -1.404000000     1.079000000     5.934000000
C    -2.560000000     0.596000000     5.395000000
H    -3.050000000    -0.170000000     5.991000000
C    -2.920000000     1.097000000     4.123000000
O    -3.939000000     0.593000000     3.463000000
C    -4.901000000     1.335000000     2.785000000
C    -5.248000000     1.000000000     1.462000000
H    -4.676000000     0.208000000     0.987000000
C    -5.614000000     2.246000000     3.495000000
H    -5.538000000     2.493000000     4.551000000
C    -6.698000000     2.885000000     2.889000000
H    -7.301000000     3.643000000     3.382000000
C    -7.045000000     2.502000000     1.601000000
H    -7.898000000     3.000000000     1.148000000
C    -6.297000000     1.659000000     0.838000000
O    -6.607000000     1.548000000    -0.498000000
C    -5.774000000     1.280000000    -1.559000000
C    -6.049000000     0.298000000    -2.505000000
H    -7.029000000    -0.171000000    -2.541000000
C    -5.243000000     0.113000000    -3.634000000
O    -5.544000000    -0.721000000    -4.694000000
C    -4.528000000    -1.228000000    -5.527000000
C    -3.832000000    -2.384000000    -5.114000000
H    -3.890000000    -2.795000000    -4.110000000
C    -4.329000000    -0.711000000    -6.831000000
H    -4.817000000     0.225000000    -7.090000000
C    -3.395000000    -1.272000000    -7.704000000
H    -3.184000000    -0.839000000    -8.679000000
C    -2.768000000    -2.438000000    -7.328000000
H    -2.055000000    -2.951000000    -7.969000000
C    -2.849000000    -2.923000000    -6.003000000
O    -2.124000000    -4.054000000    -5.629000000
C    -0.874000000    -4.069000000    -5.001000000
C    -0.456000000    -5.175000000    -4.225000000
H    -1.026000000    -6.098000000    -4.291000000
C     0.643000000    -5.127000000    -3.375000000
O     0.976000000    -6.273000000    -2.601000000
C     1.521000000    -6.359000000    -1.351000000
C     2.632000000    -7.095000000    -1.137000000
H     2.967000000    -7.766000000    -1.924000000
C     3.247000000    -7.115000000     0.145000000
H     4.064000000    -7.808000000     0.331000000
C     2.656000000    -6.428000000     1.139000000
H     3.190000000    -6.490000000     2.084000000
C     1.619000000    -5.652000000     0.928000000
C     1.006000000    -5.614000000    -0.319000000
H     0.099000000    -5.045000000    -0.511000000
O    -5.006000000    -3.092000000     1.727000000
H    -4.385000000    -3.736000000     1.387000000
H    -5.318000000    -2.627000000     0.950000000
O    -3.950000000    -6.201000000    -5.013000000
H    -4.419000000    -6.934000000    -4.614000000
H    -3.523000000    -5.762000000    -4.277000000
O    -4.448000000    -2.210000000     4.320000000
H    -3.726000000    -1.599000000     4.175000000
H    -4.624000000    -2.583000000     3.457000000
O    -0.810000000    -8.026000000    -0.570000000
H    -0.084000000    -7.681000000    -1.090000000
H    -0.601000000    -7.774000000     0.330000000
O    -2.148000000    -6.650000000     5.337000000
H    -2.882000000    -7.264000000     5.343000000
H    -2.270000000    -6.139000000     4.537000000
O    -4.543000000    -8.256000000     2.289000000
H    -5.348000000    -8.693000000     2.569000000
H    -3.844000000    -8.730000000     2.739000000
O    -1.445000000    -8.991000000    -4.539000000
H    -2.204000000    -8.935000000    -3.960000000
H    -0.745000000    -9.336000000    -3.985000000
O    -2.295000000    -6.214000000     2.506000000
H    -2.342000000    -7.132000000     2.241000000
H    -2.634000000    -5.730000000     1.754000000
O    -5.687000000    -8.022000000    -3.524000000
H    -6.153000000    -8.407000000    -4.266000000
H    -5.071000000    -8.701000000    -3.249000000
O    -6.536000000    -5.209000000     2.815000000
H    -6.175000000    -4.382000000     2.495000000
H    -6.117000000    -5.878000000     2.274000000
O    -5.662000000    -4.404000000    -2.631000000
H    -6.176000000    -5.208000000    -2.549000000
H    -4.881000000    -4.565000000    -2.101000000
O    -7.067000000    -6.529000000    -1.687000000
H    -6.528000000    -6.416000000    -0.904000000
H    -6.601000000    -7.183000000    -2.207000000
O    -3.004000000   -10.136000000    -1.577000000
H    -3.158000000    -9.195000000    -1.490000000
H    -3.273000000   -10.502000000    -0.735000000
O    -2.812000000    -7.584000000    -2.158000000
H    -2.260000000    -7.792000000    -1.405000000
H    -3.139000000    -6.702000000    -1.980000000
O    -5.154000000    -6.520000000     0.364000000
H    -4.298000000    -6.104000000     0.262000000
H    -5.010000000    -7.208000000     1.013000000
O    -7.838000000    -2.837000000    -2.777000000
H    -7.151000000    -3.474000000    -2.970000000
H    -8.087000000    -2.486000000    -3.632000000
O    -0.076000000    -7.973000000     2.012000000
H     0.054000000    -7.190000000     2.548000000
H     0.569000000    -8.598000000     2.341000000
O    -5.891000000    -2.113000000    -0.901000000
H    -5.371000000    -1.593000000    -1.513000000
H    -6.044000000    -2.940000000    -1.359000000
O    -8.281000000    -2.050000000    -0.140000000
H    -7.330000000    -2.054000000    -0.035000000
H    -8.429000000    -2.447000000    -0.999000000
