201
-1234.96926
C    -2.761000000     3.083000000     2.922000000
H    -3.050000000     3.246000000     1.887000000
C    -1.425000000     3.377000000     3.367000000
C    -1.028000000     3.041000000     4.646000000
H    -0.012000000     3.146000000     5.020000000
C    -0.375000000     3.630000000     2.295000000
O    -0.811000000     4.686000000     1.423000000
H    -0.303000000     2.722000000     1.679000000
O     0.980000000     3.842000000     2.900000000
C     2.109000000     3.196000000     2.362000000
C     2.635000000     2.063000000     2.915000000
H     2.133000000     1.632000000     3.778000000
C     3.658000000     1.369000000     2.295000000
O     3.995000000     0.126000000     2.664000000
C     4.268000000     1.915000000     1.128000000
C     5.412000000     1.150000000     0.453000000
H     6.004000000     1.913000000    -0.056000000
C     4.896000000     0.087000000    -0.583000000
C     4.664000000     0.434000000    -1.891000000
H     4.840000000     1.472000000    -2.162000000
H     6.070000000     0.660000000     1.173000000
C     3.711000000     3.064000000     0.621000000
H     4.148000000     3.419000000    -0.309000000
C     2.694000000     3.765000000     1.240000000
C     2.118000000     5.085000000     0.669000000
H     2.890000000     5.586000000     0.081000000
H     1.763000000     5.769000000     1.442000000
C     0.971000000     4.717000000    -0.275000000
C     1.279000000     4.342000000    -1.585000000
H     2.318000000     4.184000000    -1.862000000
C    -0.358000000     4.675000000     0.145000000
C    -1.379000000     4.360000000    -0.761000000
H    -2.425000000     4.281000000    -0.478000000
C    -1.105000000     4.048000000    -2.071000000
O    -2.101000000     3.530000000    -2.852000000
C    -2.211000000     2.111000000    -2.980000000
C    -3.660000000     1.644000000    -2.828000000
C    -4.015000000     0.483000000    -3.449000000
H    -3.299000000    -0.037000000    -4.081000000
C    -4.601000000     2.371000000    -2.060000000
H    -4.341000000     3.280000000    -1.523000000
O    -1.603000000     1.808000000    -4.347000000
H    -1.690000000     1.696000000    -2.104000000
C     0.228000000     4.074000000    -2.441000000
C     0.526000000     3.787000000    -3.956000000
H     1.457000000     4.326000000    -4.143000000
H    -0.270000000     4.067000000    -4.650000000
C     0.729000000     2.329000000    -4.286000000
C     2.049000000     1.843000000    -4.253000000
H     2.810000000     2.618000000    -4.192000000
C    -0.309000000     1.407000000    -4.423000000
C    -0.027000000     0.073000000    -4.536000000
H    -0.751000000    -0.736000000    -4.583000000
C     1.235000000    -0.381000000    -4.418000000
O     1.388000000    -1.711000000    -4.415000000
C     1.721000000    -2.364000000    -3.114000000
C     0.908000000    -3.649000000    -3.024000000
C    -0.467000000    -3.635000000    -3.296000000
H    -0.932000000    -2.738000000    -3.697000000
C     1.492000000    -4.864000000    -2.549000000
H     2.557000000    -4.881000000    -2.332000000
O     3.085000000    -2.700000000    -3.099000000
H     1.380000000    -1.645000000    -2.355000000
C     2.298000000     0.471000000    -4.282000000
C     3.765000000    -0.033000000    -4.209000000
H     4.557000000     0.595000000    -4.624000000
H     3.957000000    -0.896000000    -4.850000000
C     4.143000000    -0.494000000    -2.832000000
C     3.858000000    -1.780000000    -2.371000000
C     3.975000000    -2.097000000    -1.068000000
H     3.674000000    -3.089000000    -0.743000000
C     4.570000000    -1.210000000    -0.170000000
O     4.655000000    -1.573000000     1.140000000
C     3.561000000    -0.985000000     1.852000000
H     2.755000000    -0.620000000     1.198000000
C     2.983000000    -2.047000000     2.838000000
C     2.555000000    -1.664000000     4.148000000
H     2.702000000    -0.642000000     4.488000000
C     2.752000000    -3.347000000     2.390000000
H     3.038000000    -3.693000000     1.399000000
C     1.994000000    -4.208000000     3.234000000
O     1.721000000    -5.529000000     2.988000000
C     1.534000000    -3.743000000     4.432000000
H     1.141000000    -4.417000000     5.188000000
C     1.732000000    -2.436000000     4.939000000
O     1.193000000    -2.071000000     6.171000000
C     1.083000000    -0.783000000     6.641000000
C    -0.027000000     0.024000000     6.391000000
H    -0.854000000    -0.455000000     5.874000000
C     2.110000000    -0.221000000     7.354000000
H     3.091000000    -0.664000000     7.508000000
C     1.960000000     1.058000000     7.933000000
H     2.713000000     1.496000000     8.583000000
C     0.772000000     1.779000000     7.751000000
H     0.545000000     2.660000000     8.346000000
C    -0.223000000     1.296000000     6.972000000
O    -1.472000000     1.941000000     6.758000000
C    -1.907000000     2.442000000     5.522000000
C    -3.225000000     2.175000000     5.109000000
H    -3.909000000     1.747000000     5.837000000
C    -3.677000000     2.521000000     3.860000000
O    -5.005000000     2.281000000     3.461000000
C    -5.609000000     2.960000000     2.439000000
C    -6.084000000     2.240000000     1.310000000
H    -5.799000000     1.201000000     1.172000000
C    -5.829000000     4.342000000     2.451000000
H    -5.396000000     4.943000000     3.247000000
C    -6.463000000     4.920000000     1.360000000
H    -6.556000000     5.999000000     1.461000000
C    -6.887000000     4.258000000     0.229000000
H    -7.174000000     4.791000000    -0.674000000
C    -6.636000000     2.908000000     0.219000000
O    -6.876000000     2.373000000    -1.081000000
C    -5.894000000     1.781000000    -1.862000000
C    -6.257000000     0.626000000    -2.552000000
H    -7.241000000     0.188000000    -2.403000000
C    -5.292000000    -0.012000000    -3.268000000
O    -5.693000000    -1.137000000    -3.944000000
C    -4.781000000    -2.029000000    -4.475000000
C    -4.224000000    -3.055000000    -3.648000000
H    -4.510000000    -3.133000000    -2.602000000
C    -4.256000000    -1.768000000    -5.756000000
H    -4.678000000    -0.970000000    -6.361000000
C    -3.206000000    -2.544000000    -6.221000000
H    -2.718000000    -2.360000000    -7.175000000
C    -2.801000000    -3.671000000    -5.496000000
H    -2.048000000    -4.339000000    -5.906000000
C    -3.231000000    -3.864000000    -4.204000000
O    -2.599000000    -4.799000000    -3.360000000
C    -1.261000000    -4.794000000    -3.104000000
C    -0.731000000    -5.876000000    -2.444000000
H    -1.400000000    -6.633000000    -2.043000000
C     0.659000000    -5.945000000    -2.191000000
O     1.179000000    -7.065000000    -1.524000000
C     1.962000000    -6.954000000    -0.374000000
C     3.270000000    -7.410000000    -0.355000000
H     3.797000000    -7.919000000    -1.158000000
C     3.981000000    -7.377000000     0.850000000
H     4.933000000    -7.883000000     0.987000000
C     3.465000000    -6.732000000     1.929000000
H     3.980000000    -6.885000000     2.874000000
C     2.111000000    -6.262000000     1.936000000
C     1.423000000    -6.251000000     0.723000000
H     0.424000000    -5.822000000     0.701000000
O    -1.721000000    -2.899000000     5.229000000
H    -2.503000000    -3.281000000     5.629000000
H    -1.835000000    -3.048000000     4.291000000
O    -8.018000000    -1.883000000    -0.855000000
H    -8.830000000    -2.391000000    -0.874000000
H    -7.332000000    -2.521000000    -1.049000000
O    -4.809000000    -5.737000000     3.997000000
H    -5.301000000    -5.468000000     3.221000000
H    -5.072000000    -5.115000000     4.675000000
O    -4.105000000    -3.902000000     6.159000000
H    -4.149000000    -3.606000000     7.068000000
H    -4.640000000    -3.272000000     5.676000000
O    -6.894000000    -1.714000000     5.936000000
H    -6.200000000    -1.854000000     5.291000000
H    -6.602000000    -0.954000000     6.440000000
O    -3.843000000    -8.129000000     3.572000000
H    -2.945000000    -7.795000000     3.559000000
H    -4.390000000    -7.344000000     3.558000000
O    -2.092000000    -5.612000000     6.553000000
H    -2.801000000    -5.018000000     6.306000000
H    -2.046000000    -6.242000000     5.833000000
O    -8.009000000    -6.368000000     1.318000000
H    -8.767000000    -5.971000000     0.889000000
H    -7.336000000    -5.687000000     1.294000000
O    -3.624000000    -5.819000000    -0.420000000
H    -3.612000000    -4.900000000    -0.153000000
H    -4.467000000    -5.930000000    -0.860000000
O    -3.081000000    -8.985000000    -0.548000000
H    -3.113000000    -8.433000000    -1.329000000
H    -2.938000000    -8.372000000     0.173000000
O    -7.109000000    -1.865000000     1.830000000
H    -7.268000000    -1.738000000     0.895000000
H    -7.981000000    -1.851000000     2.226000000
O    -1.432000000    -2.646000000     7.910000000
H    -1.365000000    -2.554000000     6.960000000
H    -2.241000000    -2.187000000     8.139000000
O    -4.742000000    -1.965000000     4.186000000
H    -5.175000000    -1.554000000     3.438000000
H    -4.061000000    -2.514000000     3.797000000
O    -1.983000000    -6.060000000     1.885000000
H    -2.265000000    -5.207000000     2.215000000
H    -2.467000000    -6.172000000     1.067000000
O    -5.931000000    -3.572000000    -0.774000000
H    -5.147000000    -3.595000000    -0.225000000
H    -6.106000000    -4.491000000    -0.980000000
O    -5.966000000    -6.255000000    -1.854000000
H    -6.778000000    -6.678000000    -1.574000000
H    -5.511000000    -6.925000000    -2.365000000
O    -7.912000000    -4.205000000     4.395000000
H    -7.300000000    -4.497000000     3.719000000
H    -7.528000000    -3.395000000     4.732000000
O    -0.287000000    -7.611000000     3.268000000
H    -0.917000000    -7.268000000     2.636000000
H     0.329000000    -6.891000000     3.408000000
O    -6.173000000    -4.372000000     2.038000000
H    -5.322000000    -4.207000000     1.633000000
H    -6.627000000    -3.531000000     1.993000000
