201
-1247.29204
C    -2.027000000     2.300000000     3.764000000
H    -2.107000000     3.146000000     3.087000000
C    -0.752000000     1.840000000     4.085000000
C    -0.682000000     0.768000000     4.945000000
H     0.306000000     0.444000000     5.263000000
C     0.443000000     2.398000000     3.361000000
O     0.361000000     3.846000000     3.023000000
H     0.462000000     1.739000000     2.481000000
O     1.687000000     2.206000000     4.094000000
C     2.722000000     1.714000000     3.370000000
C     2.829000000     0.325000000     3.453000000
H     2.132000000    -0.363000000     3.924000000
C     3.870000000    -0.239000000     2.687000000
O     3.949000000    -1.540000000     2.717000000
C     4.612000000     0.556000000     1.798000000
C     5.528000000    -0.038000000     0.743000000
H     6.289000000     0.688000000     0.450000000
C     4.832000000    -0.739000000    -0.436000000
C     4.691000000     0.083000000    -1.560000000
H     5.110000000     1.086000000    -1.533000000
H     6.008000000    -0.874000000     1.257000000
C     4.416000000     1.946000000     1.703000000
H     4.855000000     2.541000000     0.906000000
C     3.438000000     2.509000000     2.504000000
C     3.128000000     3.970000000     2.218000000
H     3.993000000     4.501000000     1.815000000
H     2.956000000     4.389000000     3.212000000
C     1.944000000     4.233000000     1.266000000
C     2.216000000     4.305000000    -0.113000000
H     3.222000000     4.263000000    -0.521000000
C     0.631000000     4.218000000     1.728000000
C    -0.427000000     4.349000000     0.809000000
H    -1.419000000     4.436000000     1.246000000
C    -0.191000000     4.472000000    -0.532000000
O    -1.241000000     4.500000000    -1.393000000
C    -1.491000000     3.331000000    -2.225000000
C    -3.022000000     3.130000000    -2.314000000
C    -3.579000000     2.578000000    -3.485000000
H    -3.017000000     2.239000000    -4.352000000
C    -3.832000000     3.452000000    -1.262000000
H    -3.413000000     3.890000000    -0.359000000
O    -0.931000000     3.367000000    -3.593000000
H    -1.119000000     2.484000000    -1.630000000
C     1.115000000     4.484000000    -0.987000000
C     1.371000000     4.517000000    -2.499000000
H     2.351000000     4.988000000    -2.601000000
H     0.716000000     5.266000000    -2.947000000
C     1.389000000     3.249000000    -3.206000000
C     2.563000000     2.533000000    -3.270000000
H     3.340000000     2.827000000    -2.569000000
C     0.293000000     2.738000000    -3.855000000
C     0.290000000     1.511000000    -4.394000000
H    -0.664000000     1.171000000    -4.788000000
C     1.482000000     0.785000000    -4.458000000
O     1.358000000    -0.509000000    -4.899000000
C     1.331000000    -1.495000000    -3.898000000
C     0.219000000    -2.471000000    -4.022000000
C    -0.798000000    -2.121000000    -4.899000000
H    -0.633000000    -1.507000000    -5.780000000
C    -0.021000000    -3.402000000    -3.016000000
H     0.702000000    -3.489000000    -2.209000000
O     2.647000000    -2.092000000    -3.729000000
H     1.091000000    -0.970000000    -2.962000000
C     2.646000000     1.257000000    -3.847000000
C     3.895000000     0.393000000    -3.849000000
H     4.785000000     1.025000000    -3.829000000
H     3.955000000    -0.178000000    -4.778000000
C     4.052000000    -0.455000000    -2.666000000
C     3.404000000    -1.652000000    -2.666000000
C     3.475000000    -2.439000000    -1.511000000
H     2.951000000    -3.391000000    -1.518000000
C     4.171000000    -1.959000000    -0.388000000
O     4.214000000    -2.628000000     0.794000000
C     3.204000000    -2.330000000     1.800000000
H     2.371000000    -1.761000000     1.363000000
C     2.753000000    -3.565000000     2.520000000
C     2.461000000    -3.525000000     3.856000000
H     2.808000000    -2.722000000     4.501000000
C     2.235000000    -4.602000000     1.739000000
H     2.419000000    -4.608000000     0.668000000
C     1.522000000    -5.660000000     2.401000000
O     1.190000000    -6.746000000     1.700000000
C     1.255000000    -5.604000000     3.713000000
H     0.766000000    -6.420000000     4.238000000
C     1.723000000    -4.554000000     4.442000000
O     1.457000000    -4.526000000     5.836000000
C     1.045000000    -3.388000000     6.466000000
C    -0.071000000    -2.711000000     5.922000000
H    -0.673000000    -3.086000000     5.098000000
C     1.698000000    -2.868000000     7.589000000
H     2.583000000    -3.372000000     7.968000000
C     1.236000000    -1.714000000     8.163000000
H     1.785000000    -1.208000000     8.952000000
C     0.122000000    -1.074000000     7.723000000
H    -0.403000000    -0.283000000     8.253000000
C    -0.481000000    -1.563000000     6.571000000
O    -1.713000000    -1.033000000     6.263000000
C    -1.802000000     0.052000000     5.425000000
C    -3.062000000     0.467000000     5.009000000
H    -3.979000000    -0.014000000     5.342000000
C    -3.178000000     1.563000000     4.203000000
O    -4.419000000     1.929000000     3.823000000
C    -4.667000000     3.013000000     2.985000000
C    -5.107000000     2.838000000     1.695000000
H    -5.281000000     1.853000000     1.269000000
C    -4.414000000     4.251000000     3.447000000
H    -3.905000000     4.413000000     4.394000000
C    -4.722000000     5.404000000     2.755000000
H    -4.575000000     6.360000000     3.251000000
C    -5.335000000     5.242000000     1.492000000
H    -5.584000000     6.183000000     1.008000000
C    -5.483000000     3.959000000     0.956000000
O    -5.972000000     3.772000000    -0.323000000
C    -5.180000000     3.395000000    -1.385000000
C    -5.809000000     2.785000000    -2.475000000
H    -6.893000000     2.702000000    -2.490000000
C    -4.942000000     2.266000000    -3.496000000
O    -5.452000000     1.607000000    -4.631000000
C    -4.678000000     0.903000000    -5.564000000
C    -4.142000000    -0.307000000    -5.163000000
H    -4.405000000    -0.745000000    -4.203000000
C    -4.506000000     1.303000000    -6.896000000
H    -5.238000000     2.000000000    -7.296000000
C    -3.709000000     0.594000000    -7.757000000
H    -3.621000000     0.864000000    -8.807000000
C    -3.150000000    -0.647000000    -7.348000000
H    -2.610000000    -1.331000000    -7.998000000
C    -3.360000000    -1.108000000    -6.036000000
O    -3.050000000    -2.375000000    -5.617000000
C    -2.042000000    -2.765000000    -4.784000000
C    -2.240000000    -3.780000000    -3.920000000
H    -3.253000000    -4.133000000    -3.744000000
C    -1.209000000    -4.100000000    -2.995000000
O    -1.493000000    -4.967000000    -1.897000000
C    -0.524000000    -5.913000000    -1.475000000
C     0.117000000    -6.779000000    -2.300000000
H    -0.090000000    -6.720000000    -3.366000000
C     1.170000000    -7.551000000    -1.832000000
H     1.686000000    -8.204000000    -2.531000000
C     1.444000000    -7.650000000    -0.488000000
H     2.321000000    -8.243000000    -0.241000000
C     0.841000000    -6.745000000     0.333000000
C    -0.193000000    -5.889000000    -0.092000000
H    -0.645000000    -5.202000000     0.620000000
O    -4.283000000    -4.705000000     2.902000000
H    -3.962000000    -4.642000000     2.002000000
H    -4.769000000    -3.892000000     3.039000000
O    -7.211000000    -5.421000000    -3.225000000
H    -7.044000000    -6.288000000    -2.857000000
H    -7.712000000    -5.591000000    -4.022000000
O    -6.001000000    -5.147000000     4.882000000
H    -5.337000000    -4.987000000     4.211000000
H    -5.555000000    -4.965000000     5.709000000
O    -5.216000000    -0.417000000    -1.185000000
H    -4.456000000     0.111000000    -1.431000000
H    -4.851000000    -1.273000000    -0.960000000
O    -2.524000000    -6.105000000     4.539000000
H    -3.190000000    -5.577000000     4.098000000
H    -2.191000000    -5.538000000     5.235000000
O    -3.681000000    -7.106000000    -2.994000000
H    -3.538000000    -7.225000000    -2.055000000
H    -4.623000000    -7.234000000    -3.110000000
O    -4.054000000    -3.108000000     6.139000000
H    -4.839000000    -2.577000000     6.274000000
H    -3.354000000    -2.613000000     6.564000000
O    -5.924000000    -4.786000000     0.110000000
H    -5.125000000    -4.293000000    -0.077000000
H    -5.692000000    -5.696000000    -0.076000000
O    -2.524000000    -9.338000000    -0.886000000
H    -2.808000000    -8.446000000    -0.687000000
H    -3.113000000    -9.627000000    -1.583000000
O    -8.889000000    -2.245000000     0.643000000
H    -8.379000000    -1.435000000     0.650000000
H    -8.346000000    -2.874000000     1.119000000
O    -7.858000000    -2.323000000     4.114000000
H    -7.084000000    -2.439000000     3.564000000
H    -8.429000000    -3.056000000     3.882000000
O    -8.536000000    -5.201000000     1.071000000
H    -7.586000000    -5.148000000     0.966000000
H    -8.883000000    -5.049000000     0.193000000
O    -7.300000000    -0.201000000     0.776000000
H    -7.616000000     0.701000000     0.822000000
H    -6.616000000    -0.181000000     0.107000000
O    -2.641000000    -7.998000000     2.612000000
H    -1.760000000    -8.160000000     2.272000000
H    -2.541000000    -7.237000000     3.184000000
O    -5.407000000    -3.265000000    -2.662000000
H    -5.940000000    -4.048000000    -2.525000000
H    -5.184000000    -2.970000000    -1.779000000
O    -7.929000000    -7.161000000     3.290000000
H    -8.411000000    -6.862000000     2.519000000
H    -7.423000000    -6.397000000     3.567000000
O    -5.909000000    -2.491000000     1.967000000
H    -5.699000000    -2.840000000     1.100000000
H    -6.171000000    -1.585000000     1.802000000
O    -7.293000000    -1.436000000    -3.147000000
H    -6.693000000    -2.182000000    -3.126000000
H    -6.899000000    -0.795000000    -2.555000000
O    -3.787000000    -6.670000000     0.157000000
H    -3.290000000    -5.859000000     0.049000000
H    -3.636000000    -6.924000000     1.068000000
