201
-1264.50968
C    -2.872000000     1.424000000     4.226000000
H    -3.247000000     2.425000000     4.032000000
C    -1.471000000     1.266000000     4.282000000
C    -0.922000000     0.003000000     4.515000000
H     0.130000000    -0.162000000     4.296000000
C    -0.474000000     2.273000000     3.708000000
O    -1.002000000     3.607000000     3.555000000
H    -0.300000000     1.934000000     2.676000000
O     0.771000000     2.283000000     4.345000000
C     1.909000000     2.199000000     3.533000000
C     2.564000000     0.965000000     3.444000000
H     2.308000000     0.069000000     4.003000000
C     3.613000000     0.819000000     2.513000000
O     4.099000000    -0.461000000     2.493000000
C     4.075000000     1.889000000     1.696000000
C     5.235000000     1.699000000     0.669000000
H     5.636000000     2.701000000     0.500000000
C     4.722000000     1.001000000    -0.572000000
C     4.297000000     1.793000000    -1.649000000
H     4.495000000     2.861000000    -1.698000000
H     6.049000000     1.155000000     1.153000000
C     3.446000000     3.131000000     1.925000000
H     3.864000000     3.992000000     1.409000000
C     2.372000000     3.266000000     2.764000000
C     1.692000000     4.636000000     2.936000000
H     2.370000000     5.487000000     2.839000000
H     1.332000000     4.638000000     3.967000000
C     0.480000000     4.636000000     1.913000000
C     0.676000000     5.084000000     0.633000000
H     1.670000000     5.459000000     0.405000000
C    -0.806000000     4.237000000     2.370000000
C    -1.882000000     4.365000000     1.521000000
H    -2.855000000     4.023000000     1.863000000
C    -1.659000000     4.661000000     0.177000000
O    -2.594000000     4.402000000    -0.783000000
C    -2.570000000     3.280000000    -1.628000000
C    -3.880000000     2.501000000    -1.643000000
C    -4.033000000     1.485000000    -2.639000000
H    -3.235000000     1.158000000    -3.301000000
C    -4.762000000     2.563000000    -0.544000000
H    -4.553000000     3.253000000     0.269000000
O    -2.096000000     3.493000000    -2.948000000
H    -1.775000000     2.665000000    -1.180000000
C    -0.383000000     5.046000000    -0.299000000
C    -0.007000000     5.256000000    -1.753000000
H     0.842000000     5.928000000    -1.892000000
H    -0.854000000     5.720000000    -2.261000000
C     0.256000000     4.038000000    -2.556000000
C     1.605000000     3.656000000    -2.814000000
H     2.383000000     4.087000000    -2.189000000
C    -0.749000000     3.299000000    -3.210000000
C    -0.393000000     2.218000000    -3.985000000
H    -1.159000000     1.602000000    -4.449000000
C     0.887000000     1.733000000    -4.125000000
O     1.062000000     0.489000000    -4.668000000
C     1.458000000    -0.650000000    -3.791000000
C     0.793000000    -1.987000000    -4.179000000
C    -0.492000000    -2.011000000    -4.703000000
H    -1.038000000    -1.074000000    -4.782000000
C     1.534000000    -3.232000000    -4.041000000
H     2.604000000    -3.229000000    -3.848000000
O     2.875000000    -0.742000000    -3.870000000
H     1.173000000    -0.397000000    -2.759000000
C     1.919000000     2.509000000    -3.590000000
C     3.288000000     2.122000000    -3.888000000
H     3.918000000     3.014000000    -3.869000000
H     3.266000000     1.612000000    -4.853000000
C     3.809000000     1.176000000    -2.806000000
C     3.626000000    -0.211000000    -2.821000000
C     4.048000000    -0.937000000    -1.741000000
H     3.808000000    -1.996000000    -1.777000000
C     4.609000000    -0.366000000    -0.613000000
O     4.910000000    -1.167000000     0.434000000
C     3.838000000    -1.312000000     1.418000000
H     2.935000000    -1.037000000     0.854000000
C     3.716000000    -2.793000000     1.818000000
C     3.422000000    -3.198000000     3.098000000
H     3.532000000    -2.501000000     3.924000000
C     3.679000000    -3.763000000     0.815000000
H     3.920000000    -3.582000000    -0.230000000
C     3.396000000    -5.105000000     1.109000000
O     3.282000000    -6.241000000     0.235000000
C     3.019000000    -5.419000000     2.384000000
H     2.805000000    -6.472000000     2.543000000
C     2.994000000    -4.505000000     3.428000000
O     2.476000000    -4.964000000     4.686000000
C     1.560000000    -4.230000000     5.451000000
C     0.454000000    -3.610000000     4.823000000
H     0.292000000    -3.739000000     3.756000000
C     1.799000000    -3.950000000     6.781000000
H     2.614000000    -4.514000000     7.227000000
C     0.886000000    -3.179000000     7.566000000
H     0.993000000    -2.878000000     8.605000000
C    -0.238000000    -2.627000000     6.926000000
H    -0.908000000    -2.018000000     7.529000000
C    -0.403000000    -2.764000000     5.546000000
O    -1.488000000    -2.329000000     4.957000000
C    -1.816000000    -0.991000000     4.949000000
C    -3.201000000    -0.755000000     5.045000000
H    -3.869000000    -1.565000000     5.328000000
C    -3.717000000     0.417000000     4.623000000
O    -5.083000000     0.505000000     4.642000000
C    -5.777000000     1.449000000     3.922000000
C    -5.919000000     1.284000000     2.511000000
H    -5.559000000     0.344000000     2.100000000
C    -6.526000000     2.400000000     4.595000000
H    -6.526000000     2.412000000     5.682000000
C    -7.160000000     3.341000000     3.845000000
H    -7.508000000     4.266000000     4.297000000
C    -7.238000000     3.208000000     2.431000000
H    -7.753000000     3.999000000     1.892000000
C    -6.631000000     2.207000000     1.781000000
O    -6.905000000     2.009000000     0.433000000
C    -5.934000000     1.839000000    -0.548000000
C    -6.158000000     0.927000000    -1.600000000
H    -7.028000000     0.276000000    -1.611000000
C    -5.187000000     0.727000000    -2.576000000
O    -5.350000000    -0.298000000    -3.479000000
C    -4.494000000    -0.494000000    -4.532000000
C    -3.827000000    -1.740000000    -4.637000000
H    -3.906000000    -2.490000000    -3.854000000
C    -4.373000000     0.519000000    -5.500000000
H    -4.860000000     1.480000000    -5.354000000
C    -3.526000000     0.278000000    -6.615000000
H    -3.515000000     1.029000000    -7.401000000
C    -2.894000000    -0.958000000    -6.729000000
H    -2.092000000    -0.976000000    -7.462000000
C    -3.054000000    -1.973000000    -5.761000000
O    -2.279000000    -3.149000000    -5.738000000
C    -0.993000000    -3.159000000    -5.214000000
C    -0.312000000    -4.384000000    -4.994000000
H    -0.762000000    -5.341000000    -5.243000000
C     0.966000000    -4.407000000    -4.395000000
O     1.654000000    -5.642000000    -4.280000000
C     2.711000000    -5.763000000    -3.404000000
C     4.020000000    -5.833000000    -3.922000000
H     4.196000000    -5.738000000    -4.990000000
C     5.061000000    -5.966000000    -3.059000000
H     6.087000000    -6.123000000    -3.384000000
C     4.837000000    -6.058000000    -1.646000000
H     5.715000000    -6.251000000    -1.035000000
C     3.557000000    -6.043000000    -1.120000000
C     2.467000000    -5.893000000    -2.023000000
H     1.459000000    -5.885000000    -1.617000000
O    -1.161000000    -6.967000000    -1.491000000
H    -1.406000000    -6.260000000    -0.895000000
H    -1.724000000    -6.842000000    -2.255000000
O    -3.729000000    -1.114000000     0.635000000
H    -3.234000000    -1.252000000     1.442000000
H    -3.089000000    -0.756000000     0.020000000
O    -7.773000000    -3.988000000    -0.099000000
H    -7.690000000    -4.237000000     0.822000000
H    -7.078000000    -3.344000000    -0.236000000
O    -5.537000000    -6.578000000    -1.921000000
H    -5.169000000    -6.819000000    -1.071000000
H    -6.453000000    -6.370000000    -1.736000000
O    -0.858000000    -9.047000000     1.915000000
H    -1.013000000    -8.119000000     2.094000000
H    -0.280000000    -9.050000000     1.152000000
O    -8.140000000    -6.011000000    -1.773000000
H    -8.943000000    -5.896000000    -2.280000000
H    -8.029000000    -5.181000000    -1.309000000
O    -1.942000000   -10.512000000    -1.888000000
H    -2.015000000   -10.009000000    -2.699000000
H    -1.276000000   -10.051000000    -1.380000000
O    -4.281000000    -4.733000000     1.176000000
H    -4.968000000    -4.894000000     0.529000000
H    -3.488000000    -4.601000000     0.655000000
O    -7.099000000    -5.358000000     2.330000000
H    -7.957000000    -5.089000000     2.657000000
H    -7.020000000    -6.276000000     2.592000000
O    -4.274000000    -6.467000000     3.396000000
H    -4.338000000    -5.811000000     2.702000000
H    -4.910000000    -6.184000000     4.053000000
O    -5.795000000    -3.155000000     3.369000000
H    -5.020000000    -3.092000000     2.812000000
H    -6.220000000    -3.969000000     3.097000000
O    -2.092000000    -8.946000000    -3.986000000
H    -2.869000000    -8.989000000    -4.544000000
H    -2.018000000    -8.022000000    -3.749000000
O    -3.727000000    -5.502000000    -6.096000000
H    -3.619000000    -4.551000000    -6.085000000
H    -3.610000000    -5.768000000    -5.184000000
O    -6.647000000    -3.002000000    -3.589000000
H    -6.066000000    -3.559000000    -3.071000000
H    -6.354000000    -2.110000000    -3.402000000
O     0.504000000    -8.910000000    -0.367000000
H    -0.033000000    -8.245000000    -0.798000000
H     1.403000000    -8.604000000    -0.484000000
O    -3.095000000    -5.810000000    -3.403000000
H    -3.006000000    -5.104000000    -2.762000000
H    -3.882000000    -6.283000000    -3.130000000
O    -1.399000000    -6.338000000     2.062000000
H    -1.749000000    -5.807000000     1.347000000
H    -2.172000000    -6.619000000     2.552000000
O    -5.535000000    -2.590000000    -0.753000000
H    -5.419000000    -1.841000000    -0.168000000
H    -4.647000000    -2.910000000    -0.911000000
O    -4.525000000    -7.950000000     0.748000000
H    -4.010000000    -8.755000000     0.805000000
H    -4.226000000    -7.423000000     1.489000000
