201
-1235.71652
C    -3.337000000     0.438000000     3.738000000
H    -3.665000000     0.863000000     2.793000000
C    -2.191000000     1.024000000     4.298000000
C    -1.656000000     0.500000000     5.438000000
H    -0.706000000     0.858000000     5.828000000
C    -1.437000000     2.122000000     3.509000000
O    -2.327000000     3.105000000     2.872000000
H    -1.020000000     1.538000000     2.675000000
O    -0.396000000     2.719000000     4.396000000
C     0.827000000     2.791000000     3.762000000
C     1.806000000     1.859000000     3.985000000
H     1.606000000     1.038000000     4.668000000
C     2.988000000     1.864000000     3.248000000
O     3.846000000     0.789000000     3.302000000
C     3.242000000     2.838000000     2.294000000
C     4.487000000     2.812000000     1.462000000
H     4.597000000     3.871000000     1.220000000
C     4.404000000     1.982000000     0.181000000
C     4.025000000     2.675000000    -0.997000000
H     3.922000000     3.755000000    -0.936000000
H     5.383000000     2.448000000     1.970000000
C     2.298000000     3.864000000     2.112000000
H     2.446000000     4.641000000     1.366000000
C     1.083000000     3.816000000     2.822000000
C     0.047000000     4.918000000     2.593000000
H     0.656000000     5.791000000     2.353000000
H    -0.504000000     5.261000000     3.471000000
C    -0.894000000     4.560000000     1.460000000
C    -0.677000000     5.065000000     0.178000000
H     0.123000000     5.755000000    -0.077000000
C    -2.066000000     3.793000000     1.695000000
C    -2.888000000     3.376000000     0.605000000
H    -3.590000000     2.581000000     0.842000000
C    -2.535000000     3.757000000    -0.694000000
O    -3.333000000     3.172000000    -1.661000000
C    -2.779000000     2.113000000    -2.547000000
C    -3.765000000     1.001000000    -2.825000000
C    -3.768000000     0.281000000    -4.000000000
H    -3.076000000     0.572000000    -4.787000000
C    -4.574000000     0.612000000    -1.775000000
H    -4.590000000     1.123000000    -0.815000000
O    -2.326000000     2.799000000    -3.771000000
H    -1.845000000     1.717000000    -2.122000000
C    -1.497000000     4.609000000    -0.905000000
C    -1.059000000     5.053000000    -2.300000000
H    -0.377000000     5.901000000    -2.210000000
H    -1.876000000     5.476000000    -2.887000000
C    -0.332000000     3.918000000    -3.008000000
C     1.041000000     3.873000000    -3.046000000
H     1.672000000     4.664000000    -2.650000000
C    -0.977000000     2.892000000    -3.720000000
C    -0.252000000     1.800000000    -4.305000000
H    -0.795000000     1.029000000    -4.845000000
C     1.094000000     1.714000000    -4.115000000
O     1.793000000     0.651000000    -4.664000000
C     2.207000000    -0.366000000    -3.719000000
C     1.774000000    -1.812000000    -4.042000000
C     0.839000000    -2.042000000    -5.091000000
H     0.540000000    -1.288000000    -5.815000000
C     2.106000000    -2.840000000    -3.230000000
H     2.760000000    -2.621000000    -2.390000000
O     3.593000000    -0.296000000    -3.272000000
H     1.732000000    -0.160000000    -2.748000000
C     1.754000000     2.748000000    -3.451000000
C     3.265000000     2.791000000    -3.359000000
H     3.650000000     3.812000000    -3.327000000
H     3.673000000     2.374000000    -4.282000000
C     3.788000000     1.919000000    -2.191000000
C     3.989000000     0.511000000    -2.155000000
C     4.418000000    -0.082000000    -1.047000000
H     4.547000000    -1.160000000    -1.090000000
C     4.606000000     0.650000000     0.124000000
O     4.903000000     0.021000000     1.280000000
C     3.793000000    -0.141000000     2.183000000
H     2.805000000    -0.001000000     1.720000000
C     3.648000000    -1.529000000     2.745000000
C     3.032000000    -1.776000000     4.054000000
H     2.580000000    -0.928000000     4.562000000
C     3.951000000    -2.644000000     1.959000000
H     4.176000000    -2.504000000     0.905000000
C     3.865000000    -3.943000000     2.434000000
O     4.179000000    -5.011000000     1.673000000
C     3.136000000    -4.124000000     3.645000000
H     2.884000000    -5.109000000     4.029000000
C     2.809000000    -3.104000000     4.460000000
O     2.027000000    -3.472000000     5.527000000
C     1.502000000    -2.602000000     6.410000000
C     0.132000000    -2.258000000     6.294000000
H    -0.415000000    -2.607000000     5.422000000
C     2.265000000    -2.213000000     7.492000000
H     3.278000000    -2.585000000     7.625000000
C     1.702000000    -1.302000000     8.449000000
H     2.284000000    -0.985000000     9.310000000
C     0.327000000    -1.080000000     8.355000000
H    -0.145000000    -0.454000000     9.107000000
C    -0.442000000    -1.465000000     7.229000000
O    -1.733000000    -1.133000000     7.205000000
C    -2.236000000    -0.629000000     6.021000000
C    -3.397000000    -1.128000000     5.481000000
H    -3.857000000    -1.945000000     6.030000000
C    -3.876000000    -0.663000000     4.291000000
O    -5.041000000    -1.240000000     3.814000000
C    -5.727000000    -0.592000000     2.716000000
C    -5.819000000    -1.107000000     1.458000000
H    -5.477000000    -2.116000000     1.243000000
C    -6.188000000     0.743000000     2.950000000
H    -6.108000000     1.204000000     3.931000000
C    -6.604000000     1.487000000     1.887000000
H    -6.816000000     2.551000000     1.960000000
C    -6.685000000     0.918000000     0.633000000
H    -6.976000000     1.575000000    -0.182000000
C    -6.213000000    -0.331000000     0.407000000
O    -6.228000000    -0.889000000    -0.882000000
C    -5.460000000    -0.465000000    -1.946000000
C    -5.609000000    -1.077000000    -3.176000000
H    -6.234000000    -1.965000000    -3.203000000
C    -4.716000000    -0.758000000    -4.198000000
O    -4.847000000    -1.419000000    -5.408000000
C    -3.812000000    -1.710000000    -6.288000000
C    -2.732000000    -2.461000000    -5.775000000
H    -2.833000000    -2.758000000    -4.735000000
C    -3.777000000    -1.245000000    -7.591000000
H    -4.548000000    -0.551000000    -7.917000000
C    -2.719000000    -1.539000000    -8.447000000
H    -2.702000000    -1.244000000    -9.493000000
C    -1.672000000    -2.295000000    -7.995000000
H    -0.809000000    -2.453000000    -8.636000000
C    -1.676000000    -2.776000000    -6.618000000
O    -0.699000000    -3.603000000    -6.195000000
C     0.246000000    -3.283000000    -5.274000000
C     0.613000000    -4.272000000    -4.386000000
H     0.266000000    -5.283000000    -4.584000000
C     1.555000000    -4.089000000    -3.395000000
O     1.906000000    -5.136000000    -2.560000000
C     3.084000000    -5.136000000    -1.846000000
C     4.334000000    -5.191000000    -2.539000000
H     4.384000000    -5.149000000    -3.624000000
C     5.573000000    -5.139000000    -1.782000000
H     6.508000000    -4.903000000    -2.283000000
C     5.502000000    -5.128000000    -0.421000000
H     6.382000000    -5.162000000     0.217000000
C     4.321000000    -5.024000000     0.256000000
C     3.106000000    -5.017000000    -0.482000000
H     2.208000000    -4.808000000     0.094000000
O     0.283000000    -8.149000000    -4.551000000
H    -0.233000000    -8.037000000    -3.753000000
H    -0.174000000    -7.623000000    -5.207000000
O     1.551000000    -9.924000000    -0.635000000
H     0.917000000    -9.389000000    -0.156000000
H     1.219000000   -10.818000000    -0.555000000
O    -3.130000000    -8.090000000    -4.762000000
H    -2.555000000    -7.850000000    -4.034000000
H    -3.528000000    -7.264000000    -5.035000000
O    -3.558000000    -3.491000000     1.359000000
H    -2.895000000    -2.801000000     1.358000000
H    -3.059000000    -4.303000000     1.447000000
O    -6.182000000    -8.560000000    -1.409000000
H    -5.429000000    -8.058000000    -1.098000000
H    -5.963000000    -8.787000000    -2.313000000
O    -3.673000000    -4.982000000    -2.949000000
H    -3.062000000    -5.437000000    -2.370000000
H    -4.127000000    -4.362000000    -2.379000000
O    -4.980000000    -7.263000000     2.891000000
H    -4.369000000    -7.999000000     2.919000000
H    -4.534000000    -6.601000000     2.363000000
O    -2.530000000    -5.761000000     2.094000000
H    -1.645000000    -5.930000000     1.769000000
H    -2.404000000    -5.496000000     3.005000000
O     0.025000000    -9.231000000     3.527000000
H    -0.667000000    -8.952000000     2.928000000
H     0.838000000    -8.978000000     3.089000000
O    -5.593000000    -3.959000000     3.160000000
H    -5.381000000    -3.577000000     4.011000000
H    -4.804000000    -3.825000000     2.634000000
O    -1.845000000   -10.881000000    -0.644000000
H    -1.171000000   -11.511000000    -0.388000000
H    -2.133000000   -11.177000000    -1.507000000
O    -3.872000000    -5.633000000    -5.490000000
H    -4.568000000    -5.073000000    -5.834000000
H    -3.761000000    -5.347000000    -4.583000000
O    -1.486000000    -4.909000000     4.397000000
H    -1.985000000    -4.889000000     5.213000000
H    -0.667000000    -5.348000000     4.628000000
O    -4.485000000    -6.622000000    -0.327000000
H    -3.536000000    -6.724000000    -0.263000000
H    -4.623000000    -5.676000000    -0.372000000
O     3.072000000    -8.811000000    -2.587000000
H     2.203000000    -8.840000000    -2.989000000
H     2.906000000    -8.910000000    -1.650000000
O    -1.120000000    -8.147000000    -2.317000000
H    -0.493000000    -8.604000000    -1.757000000
H    -1.298000000    -7.326000000    -1.858000000
O     1.640000000    -7.318000000     2.099000000
H     1.766000000    -6.496000000     2.573000000
H     0.986000000    -7.110000000     1.431000000
O    -5.293000000    -3.760000000    -1.101000000
H    -5.252000000    -2.828000000    -0.887000000
H    -6.229000000    -3.964000000    -1.100000000
O    -0.648000000    -8.893000000     0.730000000
H    -0.834000000    -8.031000000     0.357000000
H    -1.352000000    -9.453000000     0.402000000
