201
-1255.44482
C    -2.717000000     1.799000000     4.738000000
H    -3.156000000     2.614000000     4.169000000
C    -1.388000000     1.533000000     4.546000000
C    -0.735000000     0.446000000     5.175000000
H     0.314000000     0.243000000     4.976000000
C    -0.628000000     2.285000000     3.512000000
O    -1.212000000     3.535000000     3.122000000
H    -0.502000000     1.595000000     2.665000000
O     0.708000000     2.641000000     4.111000000
C     1.844000000     2.915000000     3.408000000
C     2.825000000     1.839000000     3.371000000
H     2.679000000     1.028000000     4.080000000
C     3.792000000     1.716000000     2.346000000
O     4.587000000     0.523000000     2.275000000
C     3.791000000     2.677000000     1.296000000
C     4.782000000     2.660000000     0.096000000
H     5.042000000     3.652000000    -0.281000000
C     4.358000000     1.828000000    -1.066000000
C     3.678000000     2.377000000    -2.085000000
H     3.592000000     3.454000000    -2.205000000
H     5.702000000     2.265000000     0.532000000
C     2.901000000     3.765000000     1.372000000
H     2.923000000     4.536000000     0.606000000
C     1.954000000     3.892000000     2.378000000
C     0.908000000     5.025000000     2.263000000
H     1.435000000     5.900000000     1.878000000
H     0.551000000     5.347000000     3.244000000
C    -0.225000000     4.565000000     1.274000000
C    -0.207000000     4.815000000    -0.167000000
H     0.601000000     5.390000000    -0.611000000
C    -1.332000000     3.930000000     1.813000000
C    -2.460000000     3.654000000     1.047000000
H    -3.188000000     3.014000000     1.540000000
C    -2.444000000     3.881000000    -0.326000000
O    -3.420000000     3.137000000    -1.019000000
C    -3.060000000     2.015000000    -1.764000000
C    -4.205000000     0.983000000    -1.555000000
C    -4.477000000     0.082000000    -2.548000000
H    -3.928000000     0.261000000    -3.468000000
C    -4.805000000     0.879000000    -0.278000000
H    -4.402000000     1.460000000     0.547000000
O    -2.900000000     2.404000000    -3.164000000
H    -2.166000000     1.562000000    -1.312000000
C    -1.321000000     4.418000000    -0.939000000
C    -1.265000000     4.697000000    -2.368000000
H    -0.588000000     5.506000000    -2.651000000
H    -2.319000000     4.792000000    -2.638000000
C    -0.749000000     3.493000000    -3.126000000
C     0.617000000     3.412000000    -3.412000000
H     1.355000000     4.087000000    -2.989000000
C    -1.547000000     2.452000000    -3.531000000
C    -1.030000000     1.380000000    -4.200000000
H    -1.730000000     0.563000000    -4.357000000
C     0.300000000     1.369000000    -4.565000000
O     0.796000000     0.169000000    -5.057000000
C     1.318000000    -0.725000000    -4.075000000
C     0.839000000    -2.158000000    -4.361000000
C    -0.397000000    -2.428000000    -4.992000000
H    -0.918000000    -1.622000000    -5.503000000
C     1.558000000    -3.211000000    -3.748000000
H     2.396000000    -2.945000000    -3.108000000
O     2.752000000    -0.639000000    -4.031000000
H     1.015000000    -0.372000000    -3.078000000
C     1.149000000     2.362000000    -4.120000000
C     2.652000000     2.256000000    -4.285000000
H     3.089000000     3.257000000    -4.287000000
H     2.976000000     1.783000000    -5.215000000
C     3.290000000     1.558000000    -3.178000000
C     3.348000000     0.185000000    -3.053000000
C     3.934000000    -0.386000000    -1.952000000
H     4.180000000    -1.445000000    -1.967000000
C     4.479000000     0.390000000    -0.968000000
O     4.959000000    -0.303000000     0.155000000
C     4.101000000    -0.378000000     1.273000000
H     3.110000000    -0.171000000     0.841000000
C     4.128000000    -1.766000000     1.877000000
C     3.691000000    -2.027000000     3.164000000
H     3.460000000    -1.184000000     3.811000000
C     4.468000000    -2.823000000     1.069000000
H     4.743000000    -2.716000000     0.023000000
C     4.414000000    -4.151000000     1.544000000
O     4.722000000    -5.226000000     0.760000000
C     4.204000000    -4.356000000     2.918000000
H     4.212000000    -5.333000000     3.394000000
C     3.784000000    -3.277000000     3.724000000
O     3.329000000    -3.549000000     5.025000000
C     2.635000000    -2.699000000     5.748000000
C     1.230000000    -2.657000000     5.582000000
H     0.706000000    -3.390000000     4.974000000
C     3.329000000    -1.775000000     6.604000000
H     4.405000000    -1.687000000     6.733000000
C     2.580000000    -0.975000000     7.390000000
H     3.026000000    -0.170000000     7.968000000
C     1.190000000    -1.028000000     7.371000000
H     0.612000000    -0.332000000     7.974000000
C     0.484000000    -1.824000000     6.437000000
O    -0.896000000    -1.650000000     6.329000000
C    -1.461000000    -0.446000000     5.976000000
C    -2.808000000    -0.200000000     6.117000000
H    -3.515000000    -0.902000000     6.552000000
C    -3.418000000     0.892000000     5.543000000
O    -4.801000000     0.945000000     5.604000000
C    -5.501000000     1.295000000     4.436000000
C    -5.457000000     0.406000000     3.385000000
H    -5.013000000    -0.583000000     3.460000000
C    -6.142000000     2.545000000     4.238000000
H    -6.243000000     3.191000000     5.107000000
C    -6.772000000     2.860000000     2.999000000
H    -7.280000000     3.816000000     2.899000000
C    -6.815000000     1.862000000     2.040000000
H    -7.299000000     2.095000000     1.095000000
C    -6.133000000     0.636000000     2.186000000
O    -6.103000000    -0.399000000     1.228000000
C    -5.740000000    -0.179000000    -0.086000000
C    -5.970000000    -1.125000000    -1.081000000
H    -6.561000000    -2.022000000    -0.909000000
C    -5.404000000    -0.964000000    -2.346000000
O    -5.611000000    -1.933000000    -3.322000000
C    -4.853000000    -2.106000000    -4.500000000
C    -3.816000000    -3.026000000    -4.592000000
H    -3.640000000    -3.763000000    -3.812000000
C    -5.029000000    -1.221000000    -5.585000000
H    -5.781000000    -0.438000000    -5.533000000
C    -4.255000000    -1.250000000    -6.743000000
H    -4.496000000    -0.570000000    -7.555000000
C    -3.191000000    -2.187000000    -6.812000000
H    -2.658000000    -2.435000000    -7.727000000
C    -3.080000000    -3.108000000    -5.759000000
O    -2.080000000    -4.017000000    -5.748000000
C    -0.940000000    -3.742000000    -5.074000000
C    -0.183000000    -4.779000000    -4.514000000
H    -0.446000000    -5.833000000    -4.560000000
C     0.988000000    -4.538000000    -3.777000000
O     1.604000000    -5.419000000    -3.000000000
C     2.871000000    -5.388000000    -2.462000000
C     3.963000000    -5.609000000    -3.349000000
H     3.822000000    -5.747000000    -4.418000000
C     5.220000000    -5.567000000    -2.834000000
H     6.068000000    -5.779000000    -3.481000000
C     5.448000000    -5.378000000    -1.474000000
H     6.480000000    -5.389000000    -1.133000000
C     4.425000000    -5.222000000    -0.566000000
C     3.101000000    -5.208000000    -1.108000000
H     2.238000000    -4.974000000    -0.490000000
O     0.300000000    -7.562000000    -0.822000000
H     0.717000000    -7.465000000    -1.678000000
H     0.417000000    -6.711000000    -0.400000000
O    -5.123000000    -2.943000000     3.016000000
H    -4.507000000    -2.416000000     2.507000000
H    -4.716000000    -3.809000000     3.062000000
O    -4.969000000    -5.717000000     2.873000000
H    -4.537000000    -6.381000000     2.336000000
H    -5.891000000    -5.975000000     2.877000000
O    -3.069000000    -1.213000000     1.637000000
H    -3.680000000    -0.777000000     1.044000000
H    -2.290000000    -1.372000000     1.104000000
O     0.455000000    -5.523000000     3.135000000
H     0.287000000    -5.504000000     2.193000000
H    -0.024000000    -4.770000000     3.480000000
O     2.641000000    -9.715000000    -0.136000000
H     2.475000000   -10.648000000    -0.273000000
H     1.880000000    -9.278000000    -0.519000000
O    -2.180000000    -6.520000000     1.820000000
H    -1.506000000    -6.232000000     1.205000000
H    -1.925000000    -6.128000000     2.656000000
O    -1.172000000    -8.507000000    -4.114000000
H    -1.600000000    -9.264000000    -3.715000000
H    -1.503000000    -7.757000000    -3.619000000
O    -1.857000000    -3.771000000     3.567000000
H    -1.906000000    -3.920000000     4.512000000
H    -2.175000000    -2.877000000     3.449000000
O    -6.191000000    -7.894000000     1.185000000
H    -5.295000000    -7.996000000     0.863000000
H    -6.614000000    -7.330000000     0.537000000
O     1.436000000    -8.378000000    -3.902000000
H     0.498000000    -8.416000000    -3.716000000
H     1.491000000    -8.023000000    -4.789000000
O    -3.320000000    -8.489000000    -0.094000000
H    -2.962000000    -9.234000000     0.389000000
H    -3.049000000    -7.723000000     0.413000000
O    -4.624000000    -6.412000000    -4.164000000
H    -5.288000000    -6.498000000    -3.481000000
H    -3.790000000    -6.482000000    -3.699000000
O    -2.482000000    -6.816000000    -2.421000000
H    -2.842000000    -7.323000000    -1.694000000
H    -2.466000000    -5.915000000    -2.100000000
O    -4.341000000    -5.192000000    -0.098000000
H    -4.496000000    -4.889000000     0.796000000
H    -3.401000000    -5.067000000    -0.234000000
O     1.111000000    -6.201000000     6.125000000
H     0.876000000    -7.086000000     5.846000000
H     1.351000000    -5.751000000     5.315000000
O    -5.942000000    -6.481000000    -1.862000000
H    -5.478000000    -5.970000000    -1.199000000
H    -6.851000000    -6.494000000    -1.562000000
O    -0.310000000    -8.287000000     3.372000000
H    -0.150000000    -7.406000000     3.032000000
H     0.360000000    -8.409000000     4.045000000
O    -0.595000000    -9.406000000     0.918000000
H    -0.482000000    -8.871000000     1.703000000
H    -0.397000000    -8.812000000     0.193000000
