201
-1273.05804
C    -2.542000000     1.570000000     4.231000000
H    -2.897000000     2.223000000     3.437000000
C    -1.198000000     1.682000000     4.543000000
C    -0.609000000     0.814000000     5.499000000
H     0.430000000     0.947000000     5.789000000
C    -0.327000000     2.539000000     3.609000000
O    -0.935000000     3.827000000     3.328000000
H    -0.224000000     1.949000000     2.686000000
O     0.986000000     2.854000000     4.230000000
C     2.068000000     2.699000000     3.377000000
C     2.647000000     1.426000000     3.436000000
H     2.219000000     0.684000000     4.104000000
C     3.609000000     1.160000000     2.541000000
O     3.975000000    -0.190000000     2.617000000
C     4.145000000     2.147000000     1.683000000
C     5.344000000     1.712000000     0.816000000
H     5.844000000     2.636000000     0.518000000
C     4.862000000     0.975000000    -0.485000000
C     4.537000000     1.712000000    -1.665000000
H     4.665000000     2.791000000    -1.641000000
H     6.073000000     1.107000000     1.360000000
C     3.497000000     3.382000000     1.606000000
H     3.813000000     4.124000000     0.877000000
C     2.474000000     3.729000000     2.470000000
C     1.613000000     4.965000000     2.401000000
H     2.311000000     5.728000000     2.049000000
H     1.353000000     5.370000000     3.382000000
C     0.422000000     4.881000000     1.507000000
C     0.548000000     5.082000000     0.146000000
H     1.435000000     5.600000000    -0.208000000
C    -0.780000000     4.223000000     1.969000000
C    -1.814000000     3.914000000     1.049000000
H    -2.758000000     3.486000000     1.378000000
C    -1.719000000     4.335000000    -0.261000000
O    -2.779000000     3.913000000    -1.107000000
C    -2.503000000     2.688000000    -1.815000000
C    -3.632000000     1.710000000    -1.754000000
C    -3.822000000     0.656000000    -2.684000000
H    -3.077000000     0.454000000    -3.449000000
C    -4.560000000     1.775000000    -0.769000000
H    -4.414000000     2.523000000     0.006000000
O    -2.111000000     3.007000000    -3.079000000
H    -1.651000000     2.276000000    -1.253000000
C    -0.543000000     4.872000000    -0.729000000
C    -0.239000000     5.164000000    -2.237000000
H     0.536000000     5.925000000    -2.349000000
H    -1.124000000     5.559000000    -2.740000000
C     0.194000000     3.834000000    -2.926000000
C     1.528000000     3.482000000    -2.958000000
H     2.321000000     4.081000000    -2.519000000
C    -0.771000000     2.895000000    -3.341000000
C    -0.314000000     1.797000000    -4.084000000
H    -1.087000000     1.205000000    -4.566000000
C     1.020000000     1.510000000    -4.268000000
O     1.414000000     0.335000000    -4.844000000
C     1.672000000    -0.757000000    -3.881000000
C     0.988000000    -2.047000000    -4.363000000
C    -0.161000000    -1.988000000    -5.171000000
H    -0.634000000    -1.050000000    -5.449000000
C     1.565000000    -3.300000000    -4.230000000
H     2.541000000    -3.338000000    -3.753000000
O     3.082000000    -0.886000000    -3.759000000
H     1.209000000    -0.645000000    -2.889000000
C     1.958000000     2.355000000    -3.665000000
C     3.441000000     2.035000000    -3.850000000
H     4.054000000     2.936000000    -3.777000000
H     3.658000000     1.646000000    -4.847000000
C     3.909000000     1.163000000    -2.753000000
C     3.745000000    -0.237000000    -2.748000000
C     4.117000000    -1.007000000    -1.669000000
H     4.080000000    -2.080000000    -1.837000000
C     4.620000000    -0.411000000    -0.526000000
O     4.729000000    -1.224000000     0.596000000
C     3.578000000    -1.057000000     1.494000000
H     2.670000000    -0.663000000     1.013000000
C     3.173000000    -2.452000000     1.977000000
C     2.801000000    -2.638000000     3.307000000
H     2.884000000    -1.873000000     4.074000000
C     3.004000000    -3.424000000     0.967000000
H     3.247000000    -3.263000000    -0.080000000
C     2.597000000    -4.721000000     1.362000000
O     2.191000000    -5.615000000     0.405000000
C     2.266000000    -4.974000000     2.702000000
H     1.828000000    -5.945000000     2.922000000
C     2.306000000    -3.935000000     3.638000000
O     1.777000000    -4.260000000     4.844000000
C     1.592000000    -3.417000000     5.937000000
C     0.547000000    -2.456000000     5.926000000
H    -0.139000000    -2.365000000     5.088000000
C     2.459000000    -3.427000000     6.991000000
H     3.318000000    -4.093000000     7.003000000
C     2.175000000    -2.672000000     8.105000000
H     2.808000000    -2.734000000     8.986000000
C     1.075000000    -1.819000000     8.101000000
H     0.817000000    -1.261000000     8.998000000
C     0.156000000    -1.769000000     7.084000000
O    -1.024000000    -0.930000000     7.149000000
C    -1.489000000    -0.063000000     6.200000000
C    -2.867000000    -0.178000000     5.863000000
H    -3.518000000    -0.877000000     6.382000000
C    -3.400000000     0.704000000     4.927000000
O    -4.775000000     0.726000000     4.716000000
C    -5.525000000     1.521000000     3.769000000
C    -5.849000000     0.974000000     2.511000000
H    -5.641000000    -0.071000000     2.295000000
C    -5.945000000     2.836000000     4.035000000
H    -5.688000000     3.235000000     5.013000000
C    -6.702000000     3.590000000     3.182000000
H    -7.061000000     4.592000000     3.402000000
C    -6.926000000     3.079000000     1.927000000
H    -7.459000000     3.612000000     1.145000000
C    -6.436000000     1.776000000     1.572000000
O    -6.669000000     1.238000000     0.378000000
C    -5.731000000     1.038000000    -0.638000000
C    -5.898000000    -0.020000000    -1.568000000
H    -6.778000000    -0.658000000    -1.589000000
C    -4.966000000    -0.156000000    -2.564000000
O    -5.296000000    -1.146000000    -3.478000000
C    -4.605000000    -1.195000000    -4.729000000
C    -3.422000000    -1.979000000    -4.891000000
H    -3.025000000    -2.557000000    -4.061000000
C    -5.130000000    -0.532000000    -5.839000000
H    -6.114000000    -0.077000000    -5.752000000
C    -4.535000000    -0.686000000    -7.112000000
H    -5.052000000    -0.302000000    -7.989000000
C    -3.436000000    -1.570000000    -7.262000000
H    -3.058000000    -1.708000000    -8.272000000
C    -2.870000000    -2.136000000    -6.145000000
O    -1.875000000    -3.070000000    -6.361000000
C    -0.790000000    -3.152000000    -5.618000000
C    -0.266000000    -4.397000000    -5.279000000
H    -0.797000000    -5.294000000    -5.587000000
C     0.933000000    -4.445000000    -4.633000000
O     1.420000000    -5.671000000    -4.343000000
C     2.225000000    -5.945000000    -3.221000000
C     3.483000000    -6.427000000    -3.467000000
H     3.812000000    -6.695000000    -4.467000000
C     4.349000000    -6.601000000    -2.392000000
H     5.337000000    -7.025000000    -2.554000000
C     3.959000000    -6.247000000    -1.107000000
H     4.582000000    -6.483000000    -0.248000000
C     2.656000000    -5.820000000    -0.878000000
C     1.809000000    -5.618000000    -1.935000000
H     0.832000000    -5.203000000    -1.700000000
O    -1.898000000    -7.926000000    -0.898000000
H    -1.009000000    -8.035000000    -1.236000000
H    -1.948000000    -7.003000000    -0.650000000
O    -4.138000000    -2.770000000     3.305000000
H    -3.753000000    -2.175000000     2.661000000
H    -4.555000000    -3.453000000     2.780000000
O    -3.934000000    -5.347000000     2.451000000
H    -4.455000000    -5.861000000     1.834000000
H    -3.057000000    -5.327000000     2.066000000
O    -3.278000000    -0.591000000     0.773000000
H    -2.502000000    -0.864000000     0.283000000
H    -3.970000000    -0.535000000     0.113000000
O     0.575000000    -7.625000000     1.143000000
H     1.130000000    -6.971000000     0.718000000
H    -0.007000000    -7.116000000     1.708000000
O     0.628000000    -9.292000000    -1.489000000
H     0.380000000   -10.184000000    -1.248000000
H     0.871000000    -8.879000000    -0.660000000
O    -4.664000000    -6.374000000    -0.130000000
H    -4.707000000    -7.318000000    -0.283000000
H    -3.739000000    -6.155000000    -0.239000000
O    -6.853000000    -2.387000000     1.626000000
H    -6.197000000    -2.898000000     1.152000000
H    -7.057000000    -2.917000000     2.397000000
O    -2.513000000    -8.089000000    -4.773000000
H    -2.644000000    -8.754000000    -4.097000000
H    -2.609000000    -7.256000000    -4.312000000
O    -2.113000000    -4.436000000     5.402000000
H    -2.396000000    -4.359000000     6.313000000
H    -2.902000000    -4.258000000     4.890000000
O    -7.165000000    -5.650000000     0.552000000
H    -6.508000000    -6.193000000     0.117000000
H    -7.834000000    -5.503000000    -0.117000000
O    -4.211000000    -9.429000000     0.074000000
H    -3.992000000   -10.330000000     0.313000000
H    -3.459000000    -9.127000000    -0.436000000
O    -5.216000000    -5.725000000     5.202000000
H    -4.675000000    -5.346000000     4.509000000
H    -5.962000000    -6.109000000     4.740000000
O    -2.912000000    -5.801000000    -3.228000000
H    -3.866000000    -5.868000000    -3.184000000
H    -2.646000000    -5.594000000    -2.332000000
O    -5.073000000    -3.501000000    -0.180000000
H    -4.596000000    -3.667000000    -0.993000000
H    -5.518000000    -4.328000000     0.009000000
O    -0.865000000    -6.545000000     3.826000000
H    -1.076000000    -6.118000000     2.996000000
H    -0.931000000    -5.848000000     4.478000000
O    -5.919000000    -5.325000000    -3.291000000
H    -6.736000000    -4.978000000    -2.933000000
H    -6.173000000    -5.728000000    -4.121000000
O     0.483000000    -8.077000000     5.623000000
H     0.027000000    -7.737000000     4.853000000
H     1.409000000    -8.052000000     5.382000000
O    -0.929000000    -9.889000000     1.568000000
H    -1.213000000    -9.643000000     2.448000000
H    -0.352000000    -9.176000000     1.294000000
