201
-1273.88068
C    -1.974000000     1.962000000     4.085000000
H    -2.341000000     2.629000000     3.310000000
C    -0.600000000     1.854000000     4.206000000
C    -0.143000000     0.877000000     5.112000000
H     0.925000000     0.793000000     5.297000000
C     0.311000000     2.512000000     3.194000000
O    -0.184000000     3.799000000     2.802000000
H     0.419000000     1.822000000     2.344000000
O     1.587000000     2.675000000     3.745000000
C     2.631000000     2.373000000     2.912000000
C     3.328000000     1.172000000     3.005000000
H     3.092000000     0.450000000     3.783000000
C     4.179000000     0.699000000     2.053000000
O     4.596000000    -0.576000000     2.035000000
C     4.598000000     1.576000000     1.077000000
C     5.512000000     1.074000000    -0.020000000
H     6.076000000     1.939000000    -0.374000000
C     4.707000000     0.490000000    -1.145000000
C     4.298000000     1.285000000    -2.249000000
H     4.580000000     2.333000000    -2.309000000
H     6.206000000     0.364000000     0.436000000
C     4.053000000     2.808000000     1.009000000
H     4.501000000     3.557000000     0.360000000
C     2.992000000     3.206000000     1.803000000
C     2.415000000     4.612000000     1.645000000
H     3.130000000     5.294000000     1.180000000
H     2.210000000     5.036000000     2.630000000
C     1.152000000     4.499000000     0.887000000
C     1.197000000     4.713000000    -0.496000000
H     2.139000000     4.865000000    -1.017000000
C    -0.051000000     4.231000000     1.542000000
C    -1.277000000     4.154000000     0.827000000
H    -2.198000000     3.964000000     1.374000000
C    -1.223000000     4.358000000    -0.512000000
O    -2.395000000     4.165000000    -1.340000000
C    -2.477000000     2.893000000    -1.997000000
C    -3.793000000     2.194000000    -1.757000000
C    -4.402000000     1.468000000    -2.816000000
H    -3.926000000     1.450000000    -3.793000000
C    -4.506000000     2.420000000    -0.591000000
H    -4.028000000     3.057000000     0.148000000
O    -2.249000000     3.065000000    -3.411000000
H    -1.699000000     2.291000000    -1.505000000
C    -0.015000000     4.631000000    -1.194000000
C    -0.043000000     4.819000000    -2.695000000
H     0.593000000     5.649000000    -3.009000000
H    -1.010000000     5.223000000    -3.003000000
C     0.110000000     3.551000000    -3.515000000
C     1.370000000     3.098000000    -3.793000000
H     2.239000000     3.684000000    -3.504000000
C    -0.984000000     2.720000000    -3.879000000
C    -0.769000000     1.461000000    -4.500000000
H    -1.606000000     0.860000000    -4.847000000
C     0.525000000     1.002000000    -4.715000000
O     0.602000000    -0.340000000    -5.136000000
C     0.961000000    -1.210000000    -4.119000000
C     0.175000000    -2.488000000    -4.190000000
C    -1.166000000    -2.455000000    -4.316000000
H    -1.571000000    -1.474000000    -4.551000000
C     0.730000000    -3.732000000    -3.981000000
H     1.804000000    -3.774000000    -3.820000000
O     2.456000000    -1.426000000    -4.110000000
H     0.624000000    -0.778000000    -3.165000000
C     1.605000000     1.840000000    -4.308000000
C     3.010000000     1.366000000    -4.531000000
H     3.707000000     2.173000000    -4.765000000
H     3.071000000     0.639000000    -5.344000000
C     3.531000000     0.654000000    -3.236000000
C     3.173000000    -0.712000000    -3.153000000
C     3.536000000    -1.469000000    -2.061000000
H     3.243000000    -2.514000000    -2.000000000
C     4.258000000    -0.820000000    -1.069000000
O     4.460000000    -1.707000000    -0.020000000
C     3.731000000    -1.425000000     1.191000000
H     2.807000000    -0.898000000     0.911000000
C     3.287000000    -2.691000000     1.951000000
C     3.316000000    -2.762000000     3.284000000
H     3.641000000    -1.917000000     3.886000000
C     2.732000000    -3.738000000     1.283000000
H     2.733000000    -3.700000000     0.197000000
C     2.235000000    -4.845000000     1.898000000
O     1.638000000    -5.893000000     1.234000000
C     2.306000000    -4.920000000     3.291000000
H     2.023000000    -5.788000000     3.882000000
C     2.877000000    -3.874000000     3.981000000
O     2.994000000    -3.857000000     5.371000000
C     2.450000000    -2.860000000     6.153000000
C     1.155000000    -2.396000000     5.952000000
H     0.474000000    -2.857000000     5.241000000
C     3.309000000    -2.318000000     7.121000000
H     4.316000000    -2.729000000     7.150000000
C     2.791000000    -1.381000000     8.015000000
H     3.357000000    -0.949000000     8.836000000
C     1.468000000    -0.915000000     7.809000000
H     1.059000000    -0.150000000     8.463000000
C     0.637000000    -1.431000000     6.828000000
O    -0.619000000    -0.882000000     6.789000000
C    -1.009000000     0.175000000     5.971000000
C    -2.400000000     0.337000000     5.773000000
H    -3.062000000    -0.276000000     6.379000000
C    -2.889000000     1.178000000     4.833000000
O    -4.278000000     1.331000000     4.780000000
C    -4.929000000     2.149000000     3.941000000
C    -5.439000000     1.672000000     2.751000000
H    -5.382000000     0.605000000     2.551000000
C    -4.986000000     3.537000000     4.214000000
H    -4.528000000     3.997000000     5.086000000
C    -5.500000000     4.422000000     3.328000000
H    -5.391000000     5.490000000     3.501000000
C    -6.059000000     3.974000000     2.136000000
H    -6.569000000     4.593000000     1.403000000
C    -6.060000000     2.565000000     1.887000000
O    -6.563000000     2.060000000     0.748000000
C    -5.837000000     1.916000000    -0.447000000
C    -6.431000000     1.187000000    -1.474000000
H    -7.404000000     0.787000000    -1.201000000
C    -5.663000000     0.983000000    -2.598000000
O    -6.221000000     0.301000000    -3.588000000
C    -5.503000000    -0.501000000    -4.425000000
C    -4.872000000    -1.622000000    -3.987000000
H    -5.075000000    -2.037000000    -3.003000000
C    -5.365000000    -0.010000000    -5.740000000
H    -5.682000000     0.981000000    -6.053000000
C    -4.613000000    -0.844000000    -6.621000000
H    -4.505000000    -0.595000000    -7.673000000
C    -3.967000000    -1.949000000    -6.125000000
H    -3.434000000    -2.644000000    -6.769000000
C    -4.023000000    -2.340000000    -4.796000000
O    -3.414000000    -3.475000000    -4.343000000
C    -2.008000000    -3.578000000    -4.169000000
C    -1.432000000    -4.847000000    -3.879000000
H    -2.091000000    -5.697000000    -3.726000000
C    -0.041000000    -4.891000000    -3.733000000
O     0.558000000    -6.031000000    -3.352000000
C     1.383000000    -6.244000000    -2.283000000
C     2.576000000    -6.949000000    -2.607000000
H     2.866000000    -7.336000000    -3.581000000
C     3.519000000    -7.221000000    -1.586000000
H     4.423000000    -7.782000000    -1.810000000
C     3.223000000    -6.888000000    -0.271000000
H     3.900000000    -7.066000000     0.561000000
C     2.052000000    -6.248000000     0.001000000
C     1.135000000    -5.786000000    -0.970000000
H     0.338000000    -5.093000000    -0.716000000
O    -2.311000000    -6.998000000    -0.846000000
H    -2.375000000    -6.138000000    -0.431000000
H    -1.678000000    -7.476000000    -0.310000000
O    -3.115000000    -8.592000000     3.481000000
H    -2.996000000    -7.872000000     2.862000000
H    -3.579000000    -8.199000000     4.220000000
O    -4.675000000    -1.907000000     3.413000000
H    -5.236000000    -1.793000000     2.646000000
H    -4.328000000    -2.794000000     3.326000000
O    -5.781000000    -4.400000000     5.998000000
H    -4.909000000    -4.455000000     6.388000000
H    -5.655000000    -4.675000000     5.090000000
O    -1.444000000    -4.963000000     4.948000000
H    -1.694000000    -4.096000000     4.628000000
H    -1.324000000    -5.486000000     4.155000000
O    -2.060000000    -1.818000000     3.632000000
H    -3.006000000    -1.674000000     3.646000000
H    -1.791000000    -1.558000000     2.751000000
O    -1.360000000    -6.269000000     2.506000000
H    -1.735000000    -5.713000000     1.823000000
H    -0.659000000    -6.750000000     2.066000000
O    -7.561000000    -6.725000000     2.381000000
H    -7.670000000    -6.060000000     3.062000000
H    -6.769000000    -6.459000000     1.912000000
O    -0.873000000    -8.622000000     0.974000000
H    -1.553000000    -8.826000000     1.616000000
H    -0.121000000    -9.147000000     1.247000000
O    -8.271000000    -2.235000000    -0.422000000
H    -8.851000000    -2.989000000    -0.317000000
H    -8.848000000    -1.476000000    -0.335000000
O    -4.999000000    -8.623000000    -0.112000000
H    -4.915000000    -9.323000000     0.536000000
H    -4.497000000    -8.932000000    -0.865000000
O    -4.463000000    -7.348000000    -2.579000000
H    -4.984000000    -6.600000000    -2.285000000
H    -3.743000000    -7.400000000    -1.950000000
O    -5.294000000    -6.148000000     0.731000000
H    -4.602000000    -5.589000000     0.378000000
H    -5.148000000    -6.999000000     0.317000000
O    -5.692000000    -5.184000000    -1.837000000
H    -6.564000000    -4.805000000    -1.725000000
H    -5.107000000    -4.577000000    -1.383000000
O    -5.734000000    -5.289000000    -5.066000000
H    -5.193000000    -4.628000000    -4.634000000
H    -5.528000000    -6.104000000    -4.608000000
O    -6.032000000    -1.831000000     0.987000000
H    -6.852000000    -1.796000000     0.495000000
H    -5.401000000    -2.207000000     0.373000000
O    -4.150000000    -4.787000000     3.447000000
H    -3.249000000    -5.070000000     3.290000000
H    -4.611000000    -4.996000000     2.635000000
O    -8.193000000    -6.891000000    -0.474000000
H    -7.916000000    -7.041000000     0.430000000
H    -7.493000000    -7.271000000    -1.005000000
O    -6.349000000    -1.287000000     5.418000000
H    -6.591000000    -2.179000000     5.667000000
H    -5.596000000    -1.395000000     4.838000000
