201
-1246.51583
C    -1.139000000     2.966000000     4.398000000
H    -1.177000000     3.945000000     3.928000000
C    -0.121000000     2.011000000     4.184000000
C    -0.087000000     0.841000000     4.945000000
H     0.724000000     0.121000000     4.883000000
C     1.013000000     2.438000000     3.249000000
O     0.948000000     3.813000000     2.869000000
H     0.873000000     1.847000000     2.332000000
O     2.342000000     2.129000000     3.800000000
C     3.165000000     1.424000000     3.003000000
C     3.098000000     0.072000000     3.109000000
H     2.340000000    -0.421000000     3.712000000
C     3.916000000    -0.665000000     2.162000000
O     3.884000000    -2.064000000     2.083000000
C     4.670000000     0.025000000     1.193000000
C     5.423000000    -0.729000000     0.059000000
H     6.275000000    -0.170000000    -0.335000000
C     4.524000000    -1.234000000    -1.074000000
C     4.424000000    -0.351000000    -2.183000000
H     5.019000000     0.552000000    -2.072000000
H     5.898000000    -1.624000000     0.466000000
C     4.550000000     1.392000000     1.036000000
H     5.110000000     1.959000000     0.296000000
C     3.860000000     2.146000000     1.973000000
C     3.778000000     3.682000000     1.811000000
H     4.707000000     3.968000000     1.314000000
H     3.738000000     4.220000000     2.761000000
C     2.503000000     4.136000000     1.037000000
C     2.671000000     4.259000000    -0.336000000
H     3.648000000     4.144000000    -0.800000000
C     1.175000000     4.208000000     1.591000000
C     0.084000000     4.495000000     0.732000000
H    -0.894000000     4.439000000     1.203000000
C     0.316000000     4.802000000    -0.571000000
O    -0.833000000     4.922000000    -1.289000000
C    -1.361000000     3.784000000    -1.967000000
C    -2.855000000     3.584000000    -1.587000000
C    -3.532000000     2.605000000    -2.248000000
H    -2.992000000     2.080000000    -3.032000000
C    -3.442000000     4.306000000    -0.544000000
H    -2.951000000     5.060000000     0.065000000
O    -1.031000000     3.734000000    -3.329000000
H    -0.819000000     2.879000000    -1.656000000
C     1.583000000     4.623000000    -1.148000000
C     1.757000000     4.751000000    -2.637000000
H     2.764000000     5.094000000    -2.882000000
H     1.119000000     5.551000000    -3.017000000
C     1.413000000     3.375000000    -3.315000000
C     2.459000000     2.478000000    -3.579000000
H     3.480000000     2.808000000    -3.404000000
C     0.095000000     3.049000000    -3.650000000
C    -0.140000000     1.741000000    -4.102000000
H    -1.085000000     1.252000000    -4.324000000
C     0.953000000     0.892000000    -4.439000000
O     0.543000000    -0.323000000    -4.942000000
C     0.546000000    -1.419000000    -4.032000000
C    -0.485000000    -2.472000000    -4.346000000
C    -1.778000000    -2.051000000    -4.605000000
H    -1.978000000    -0.989000000    -4.716000000
C    -0.269000000    -3.818000000    -4.081000000
H     0.736000000    -4.189000000    -3.894000000
O     1.865000000    -2.014000000    -4.113000000
H     0.423000000    -1.043000000    -3.006000000
C     2.238000000     1.222000000    -4.129000000
C     3.441000000     0.339000000    -4.377000000
H     4.342000000     0.956000000    -4.384000000
H     3.310000000    -0.173000000    -5.333000000
C     3.600000000    -0.672000000    -3.268000000
C     2.817000000    -1.817000000    -3.210000000
C     2.970000000    -2.690000000    -2.143000000
H     2.276000000    -3.526000000    -2.128000000
C     3.815000000    -2.467000000    -1.087000000
O     3.804000000    -3.251000000     0.021000000
C     3.051000000    -2.676000000     1.175000000
H     2.388000000    -1.920000000     0.730000000
C     2.213000000    -3.801000000     1.752000000
C     1.857000000    -3.798000000     3.066000000
H     2.301000000    -3.081000000     3.751000000
C     1.564000000    -4.661000000     0.805000000
H     1.780000000    -4.716000000    -0.259000000
C     0.578000000    -5.493000000     1.332000000
O     0.021000000    -6.473000000     0.578000000
C     0.328000000    -5.554000000     2.695000000
H    -0.284000000    -6.378000000     3.054000000
C     0.905000000    -4.639000000     3.564000000
O     0.766000000    -4.730000000     4.932000000
C     0.873000000    -3.582000000     5.770000000
C    -0.096000000    -2.612000000     5.739000000
H    -1.016000000    -2.894000000     5.234000000
C     1.911000000    -3.517000000     6.612000000
H     2.709000000    -4.253000000     6.561000000
C     2.138000000    -2.339000000     7.434000000
H     3.034000000    -2.189000000     8.031000000
C     1.101000000    -1.436000000     7.449000000
H     1.147000000    -0.640000000     8.187000000
C     0.014000000    -1.516000000     6.632000000
O    -1.016000000    -0.587000000     6.670000000
C    -1.074000000     0.572000000     5.936000000
C    -2.216000000     1.417000000     5.992000000
H    -3.049000000     1.210000000     6.658000000
C    -2.239000000     2.574000000     5.260000000
O    -3.315000000     3.471000000     5.391000000
C    -3.754000000     4.377000000     4.360000000
C    -4.200000000     3.974000000     3.113000000
H    -4.336000000     2.923000000     2.873000000
C    -3.723000000     5.714000000     4.601000000
H    -3.420000000     5.967000000     5.613000000
C    -4.012000000     6.660000000     3.623000000
H    -3.989000000     7.719000000     3.866000000
C    -4.611000000     6.232000000     2.471000000
H    -4.834000000     6.879000000     1.626000000
C    -4.690000000     4.867000000     2.165000000
O    -5.348000000     4.456000000     0.971000000
C    -4.710000000     3.940000000    -0.097000000
C    -5.376000000     2.926000000    -0.747000000
H    -6.420000000     2.738000000    -0.509000000
C    -4.763000000     2.189000000    -1.773000000
O    -5.401000000     1.023000000    -2.218000000
C    -5.204000000     0.601000000    -3.523000000
C    -4.743000000    -0.709000000    -3.704000000
H    -4.498000000    -1.274000000    -2.808000000
C    -5.276000000     1.404000000    -4.600000000
H    -5.565000000     2.438000000    -4.425000000
C    -5.222000000     0.893000000    -5.931000000
H    -5.446000000     1.515000000    -6.794000000
C    -4.672000000    -0.383000000    -6.014000000
H    -4.539000000    -0.724000000    -7.038000000
C    -4.423000000    -1.232000000    -4.965000000
O    -3.981000000    -2.529000000    -5.193000000
C    -2.741000000    -2.987000000    -4.837000000
C    -2.579000000    -4.348000000    -4.589000000
H    -3.423000000    -5.027000000    -4.672000000
C    -1.303000000    -4.770000000    -4.207000000
O    -1.145000000    -6.145000000    -4.039000000
C    -0.386000000    -6.733000000    -3.014000000
C     0.219000000    -7.965000000    -3.249000000
H     0.075000000    -8.362000000    -4.250000000
C     0.913000000    -8.561000000    -2.240000000
H     1.451000000    -9.492000000    -2.401000000
C     0.959000000    -8.072000000    -0.954000000
H     1.485000000    -8.617000000    -0.175000000
C     0.347000000    -6.815000000    -0.680000000
C    -0.241000000    -6.100000000    -1.777000000
H    -0.926000000    -5.285000000    -1.555000000
O    -7.713000000    -4.209000000    -4.272000000
H    -6.998000000    -3.982000000    -3.678000000
H    -7.302000000    -4.258000000    -5.135000000
O    -5.908000000     0.406000000     3.678000000
H    -6.048000000     0.383000000     2.731000000
H    -5.233000000    -0.255000000     3.836000000
O    -6.567000000     0.222000000     1.189000000
H    -6.301000000    -0.475000000     0.589000000
H    -7.510000000     0.309000000     1.052000000
O    -8.279000000     0.344000000    -2.926000000
H    -7.425000000     0.532000000    -2.537000000
H    -8.701000000     1.200000000    -3.001000000
O    -5.402000000    -6.163000000     0.964000000
H    -4.453000000    -6.225000000     1.067000000
H    -5.649000000    -6.977000000     0.524000000
O    -3.203000000    -5.744000000    -0.664000000
H    -3.439000000    -4.845000000    -0.434000000
H    -3.641000000    -5.901000000    -1.500000000
O    -7.171000000    -5.338000000     3.555000000
H    -7.943000000    -4.868000000     3.870000000
H    -6.832000000    -4.792000000     2.846000000
O    -6.536000000    -3.517000000     1.589000000
H    -5.919000000    -3.005000000     1.066000000
H    -6.380000000    -4.424000000     1.324000000
O    -1.904000000    -1.458000000     2.719000000
H    -2.559000000    -1.297000000     3.399000000
H    -1.867000000    -0.640000000     2.223000000
O    -7.381000000    -2.603000000    -1.147000000
H    -6.723000000    -2.042000000    -0.739000000
H    -8.070000000    -2.001000000    -1.427000000
O    -8.196000000    -5.507000000    -1.746000000
H    -8.377000000    -5.060000000    -0.919000000
H    -8.142000000    -4.803000000    -2.392000000
O    -5.361000000    -4.222000000    -2.060000000
H    -6.152000000    -3.907000000    -1.623000000
H    -4.641000000    -3.842000000    -1.557000000
O    -5.346000000    -6.895000000    -2.510000000
H    -5.598000000    -6.020000000    -2.805000000
H    -5.924000000    -7.073000000    -1.768000000
O    -7.706000000    -1.776000000     3.565000000
H    -7.438000000    -2.374000000     2.867000000
H    -6.949000000    -1.204000000     3.694000000
O    -4.488000000    -3.999000000     4.915000000
H    -3.999000000    -4.528000000     4.285000000
H    -4.027000000    -4.127000000     5.744000000
O    -3.925000000    -1.357000000     4.545000000
H    -3.668000000    -1.135000000     5.440000000
H    -4.432000000    -2.164000000     4.636000000
O    -2.941000000    -4.251000000     2.328000000
H    -3.344000000    -4.059000000     1.481000000
H    -2.378000000    -3.497000000     2.501000000
O    -2.745000000    -7.646000000     1.242000000
H    -2.779000000    -7.062000000     0.484000000
H    -3.325000000    -8.371000000     1.011000000
O    -9.145000000    -3.876000000     0.442000000
H    -9.627000000    -3.052000000     0.505000000
H    -8.240000000    -3.642000000     0.650000000
