201
-1228.28778
C    -1.307000000     2.144000000     3.752000000
H    -1.426000000     2.728000000     2.843000000
C    -0.024000000     1.788000000     4.194000000
C     0.044000000     0.911000000     5.297000000
H     0.967000000     0.588000000     5.771000000
C     1.230000000     2.111000000     3.359000000
O     1.252000000     3.508000000     3.156000000
H     1.033000000     1.599000000     2.405000000
O     2.449000000     1.691000000     3.976000000
C     3.356000000     1.059000000     3.172000000
C     3.302000000    -0.329000000     3.168000000
H     2.743000000    -0.720000000     4.014000000
C     4.006000000    -1.095000000     2.231000000
O     3.721000000    -2.434000000     2.135000000
C     4.755000000    -0.348000000     1.275000000
C     5.480000000    -1.068000000     0.109000000
H     6.407000000    -0.593000000    -0.220000000
C     4.585000000    -1.326000000    -1.058000000
C     4.509000000    -0.453000000    -2.187000000
H     5.059000000     0.484000000    -2.217000000
H     5.839000000    -2.053000000     0.415000000
C     4.806000000     1.046000000     1.326000000
H     5.396000000     1.599000000     0.599000000
C     4.045000000     1.752000000     2.243000000
C     4.005000000     3.213000000     2.186000000
H     5.010000000     3.478000000     1.853000000
H     3.850000000     3.680000000     3.161000000
C     2.860000000     3.683000000     1.256000000
C     3.090000000     4.008000000    -0.051000000
H     4.099000000     4.043000000    -0.454000000
C     1.575000000     3.866000000     1.820000000
C     0.499000000     4.252000000     1.029000000
H    -0.490000000     4.301000000     1.478000000
C     0.732000000     4.481000000    -0.319000000
O    -0.347000000     4.850000000    -1.102000000
C    -1.025000000     3.832000000    -1.834000000
C    -2.499000000     3.983000000    -1.678000000
C    -3.308000000     3.277000000    -2.544000000
H    -2.893000000     2.728000000    -3.387000000
C    -3.105000000     4.827000000    -0.752000000
H    -2.522000000     5.315000000     0.024000000
O    -0.611000000     3.873000000    -3.251000000
H    -0.795000000     2.854000000    -1.385000000
C     2.020000000     4.386000000    -0.884000000
C     2.208000000     4.569000000    -2.364000000
H     3.279000000     4.638000000    -2.565000000
H     1.698000000     5.435000000    -2.790000000
C     1.800000000     3.428000000    -3.271000000
C     2.793000000     2.481000000    -3.557000000
H     3.833000000     2.470000000    -3.240000000
C     0.509000000     3.135000000    -3.651000000
C     0.145000000     1.963000000    -4.298000000
H    -0.868000000     1.612000000    -4.475000000
C     1.184000000     1.075000000    -4.668000000
O     0.801000000    -0.138000000    -5.175000000
C     0.783000000    -1.278000000    -4.248000000
C    -0.430000000    -2.248000000    -4.250000000
C    -1.673000000    -1.611000000    -4.172000000
H    -1.727000000    -0.534000000    -4.034000000
C    -0.373000000    -3.645000000    -4.070000000
H     0.567000000    -4.166000000    -3.904000000
O     2.057000000    -2.060000000    -4.320000000
H     0.666000000    -0.845000000    -3.244000000
C     2.493000000     1.338000000    -4.220000000
C     3.738000000     0.372000000    -4.438000000
H     4.727000000     0.834000000    -4.468000000
H     3.476000000    -0.118000000    -5.378000000
C     3.725000000    -0.630000000    -3.260000000
C     2.983000000    -1.888000000    -3.317000000
C     2.959000000    -2.728000000    -2.201000000
H     2.255000000    -3.555000000    -2.239000000
C     3.696000000    -2.450000000    -1.071000000
O     3.537000000    -3.339000000     0.013000000
C     2.815000000    -2.876000000     1.161000000
H     2.199000000    -2.010000000     0.878000000
C     1.787000000    -3.854000000     1.714000000
C     1.179000000    -3.644000000     2.960000000
H     1.273000000    -2.670000000     3.433000000
C     1.404000000    -4.911000000     0.952000000
H     1.900000000    -5.185000000     0.025000000
C     0.455000000    -5.856000000     1.373000000
O    -0.069000000    -6.987000000     0.660000000
C    -0.122000000    -5.742000000     2.685000000
H    -0.849000000    -6.449000000     3.078000000
C     0.261000000    -4.575000000     3.471000000
O    -0.426000000    -4.349000000     4.628000000
C    -0.002000000    -3.501000000     5.616000000
C    -0.721000000    -2.340000000     5.892000000
H    -1.586000000    -2.120000000     5.272000000
C     1.107000000    -3.746000000     6.370000000
H     1.571000000    -4.729000000     6.349000000
C     1.489000000    -2.936000000     7.389000000
H     2.271000000    -3.182000000     8.103000000
C     0.734000000    -1.759000000     7.618000000
H     1.086000000    -1.077000000     8.388000000
C    -0.267000000    -1.384000000     6.778000000
O    -1.109000000    -0.282000000     7.032000000
C    -1.136000000     0.577000000     5.972000000
C    -2.375000000     1.140000000     5.640000000
H    -3.209000000     0.873000000     6.285000000
C    -2.470000000     1.894000000     4.479000000
O    -3.631000000     2.485000000     4.168000000
C    -3.859000000     3.704000000     3.646000000
C    -4.144000000     3.912000000     2.310000000
H    -3.954000000     3.161000000     1.548000000
C    -4.104000000     4.717000000     4.547000000
H    -3.973000000     4.423000000     5.585000000
C    -4.379000000     6.049000000     4.198000000
H    -4.528000000     6.851000000     4.917000000
C    -4.586000000     6.258000000     2.817000000
H    -4.909000000     7.226000000     2.441000000
C    -4.442000000     5.254000000     1.871000000
O    -4.816000000     5.548000000     0.515000000
C    -4.413000000     4.837000000    -0.555000000
C    -5.263000000     4.176000000    -1.410000000
H    -6.347000000     4.139000000    -1.340000000
C    -4.690000000     3.317000000    -2.365000000
O    -5.591000000     2.507000000    -3.094000000
C    -5.214000000     1.534000000    -4.028000000
C    -4.848000000     0.357000000    -3.541000000
H    -5.044000000     0.172000000    -2.488000000
C    -5.163000000     1.936000000    -5.382000000
H    -5.355000000     2.985000000    -5.593000000
C    -4.631000000     0.923000000    -6.235000000
H    -4.423000000     1.223000000    -7.258000000
C    -4.310000000    -0.376000000    -5.798000000
H    -3.974000000    -1.134000000    -6.501000000
C    -4.451000000    -0.656000000    -4.454000000
O    -4.122000000    -1.833000000    -3.888000000
C    -2.852000000    -2.393000000    -3.987000000
C    -2.783000000    -3.748000000    -3.864000000
H    -3.718000000    -4.296000000    -3.784000000
C    -1.527000000    -4.372000000    -3.859000000
O    -1.563000000    -5.757000000    -3.798000000
C    -0.793000000    -6.499000000    -2.872000000
C    -0.065000000    -7.539000000    -3.404000000
H    -0.105000000    -7.781000000    -4.463000000
C     0.752000000    -8.350000000    -2.636000000
H     1.419000000    -9.096000000    -3.061000000
C     0.717000000    -8.177000000    -1.222000000
H     1.217000000    -8.812000000    -0.496000000
C     0.030000000    -7.106000000    -0.731000000
C    -0.778000000    -6.294000000    -1.530000000
H    -1.251000000    -5.391000000    -1.155000000
O    -5.957000000     1.301000000     0.270000000
H    -5.501000000     0.526000000    -0.059000000
H    -6.215000000     1.779000000    -0.518000000
O    -7.394000000    -1.712000000    -0.624000000
H    -6.490000000    -1.543000000    -0.358000000
H    -7.744000000    -0.850000000    -0.848000000
O    -4.105000000    -6.623000000     2.131000000
H    -3.993000000    -5.677000000     2.227000000
H    -5.019000000    -6.730000000     1.868000000
O    -8.991000000     0.636000000    -1.025000000
H    -9.895000000     0.945000000    -0.967000000
H    -8.560000000     1.263000000    -1.607000000
O    -6.852000000    -4.138000000     0.306000000
H    -7.168000000    -3.347000000    -0.131000000
H    -5.928000000    -4.194000000     0.061000000
O    -4.481000000    -5.482000000    -1.731000000
H    -4.177000000    -4.691000000    -1.286000000
H    -3.879000000    -6.167000000    -1.440000000
O    -6.961000000    -7.026000000    -1.538000000
H    -7.548000000    -6.303000000    -1.317000000
H    -6.134000000    -6.601000000    -1.764000000
O    -7.559000000    -5.365000000     2.899000000
H    -6.879000000    -4.869000000     3.354000000
H    -7.509000000    -5.065000000     1.992000000
O    -1.613000000    -1.441000000     2.660000000
H    -1.639000000    -1.426000000     1.703000000
H    -2.393000000    -0.954000000     2.928000000
O   -10.175000000    -0.458000000     1.473000000
H    -9.398000000    -0.921000000     1.786000000
H    -9.840000000     0.160000000     0.824000000
O    -5.633000000    -0.512000000     5.408000000
H    -5.949000000    -1.328000000     5.796000000
H    -5.718000000     0.135000000     6.108000000
O    -4.947000000    -6.658000000    -4.059000000
H    -5.482000000    -5.938000000    -4.394000000
H    -4.777000000    -6.425000000    -3.146000000
O    -7.373000000    -1.034000000     1.992000000
H    -6.718000000    -0.337000000     1.951000000
H    -7.251000000    -1.525000000     1.179000000
O    -5.283000000    -4.174000000     4.409000000
H    -4.525000000    -4.104000000     3.830000000
H    -5.275000000    -3.361000000     4.914000000
O    -6.406000000     1.706000000     3.542000000
H    -6.127000000     1.572000000     2.636000000
H    -5.667000000     1.397000000     4.068000000
O    -4.117000000    -0.894000000     3.083000000
H    -4.748000000    -0.861000000     3.801000000
H    -4.655000000    -0.923000000     2.292000000
O    -3.364000000    -3.862000000     2.556000000
H    -3.749000000    -3.610000000     1.717000000
H    -2.597000000    -3.296000000     2.647000000
O    -3.273000000    -7.835000000    -0.577000000
H    -3.581000000    -8.729000000    -0.430000000
H    -3.161000000    -7.473000000     0.302000000
O    -9.413000000    -4.148000000    -1.721000000
H    -8.543000000    -3.849000000    -1.987000000
H    -9.854000000    -3.357000000    -1.412000000
