201
-1236.55091
C    -1.083000000     2.333000000     4.708000000
H    -1.113000000     3.289000000     4.192000000
C     0.045000000     1.471000000     4.639000000
C    -0.079000000     0.283000000     5.326000000
H     0.646000000    -0.516000000     5.200000000
C     1.202000000     1.758000000     3.744000000
O     1.363000000     3.188000000     3.695000000
H     0.982000000     1.445000000     2.712000000
O     2.453000000     1.162000000     4.189000000
C     3.209000000     0.595000000     3.158000000
C     3.257000000    -0.800000000     3.096000000
H     2.634000000    -1.417000000     3.739000000
C     3.841000000    -1.321000000     1.908000000
O     3.688000000    -2.648000000     1.693000000
C     4.615000000    -0.523000000     1.063000000
C     5.437000000    -1.143000000    -0.109000000
H     6.309000000    -0.508000000    -0.279000000
C     4.614000000    -1.263000000    -1.328000000
C     4.640000000    -0.280000000    -2.264000000
H     5.131000000     0.677000000    -2.104000000
H     5.796000000    -2.119000000     0.224000000
C     4.600000000     0.805000000     1.231000000
H     5.235000000     1.444000000     0.623000000
C     3.843000000     1.409000000     2.226000000
C     3.870000000     2.897000000     2.356000000
H     4.790000000     3.313000000     1.939000000
H     3.728000000     3.235000000     3.384000000
C     2.700000000     3.453000000     1.691000000
C     2.764000000     3.970000000     0.394000000
H     3.731000000     3.914000000    -0.099000000
C     1.485000000     3.599000000     2.366000000
C     0.420000000     4.178000000     1.725000000
H    -0.554000000     4.298000000     2.192000000
C     0.480000000     4.657000000     0.388000000
O    -0.604000000     5.089000000    -0.296000000
C    -1.303000000     4.098000000    -1.141000000
C    -2.752000000     3.922000000    -0.979000000
C    -3.579000000     3.410000000    -2.002000000
H    -3.174000000     3.258000000    -2.999000000
C    -3.307000000     4.155000000     0.257000000
H    -2.663000000     4.597000000     1.012000000
O    -0.862000000     4.181000000    -2.527000000
H    -0.944000000     3.105000000    -0.832000000
C     1.684000000     4.568000000    -0.261000000
C     1.756000000     4.915000000    -1.719000000
H     2.768000000     5.240000000    -1.967000000
H     1.157000000     5.798000000    -1.951000000
C     1.440000000     3.706000000    -2.539000000
C     2.448000000     2.878000000    -2.964000000
H     3.470000000     3.203000000    -2.782000000
C     0.158000000     3.398000000    -2.931000000
C    -0.070000000     2.279000000    -3.753000000
H    -1.094000000     2.026000000    -4.017000000
C     0.976000000     1.372000000    -4.123000000
O     0.688000000     0.170000000    -4.794000000
C     0.798000000    -1.012000000    -4.072000000
C    -0.515000000    -1.892000000    -4.374000000
C    -1.804000000    -1.293000000    -4.410000000
H    -1.843000000    -0.281000000    -4.013000000
C    -0.463000000    -3.278000000    -4.552000000
H     0.517000000    -3.744000000    -4.619000000
O     1.976000000    -1.714000000    -4.447000000
H     0.878000000    -0.811000000    -2.994000000
C     2.282000000     1.751000000    -3.811000000
C     3.433000000     0.856000000    -4.277000000
H     4.274000000     1.512000000    -4.041000000
H     3.340000000     0.590000000    -5.332000000
C     3.751000000    -0.352000000    -3.356000000
C     3.026000000    -1.529000000    -3.552000000
C     3.207000000    -2.596000000    -2.680000000
H     2.711000000    -3.554000000    -2.810000000
C     3.908000000    -2.418000000    -1.517000000
O     3.698000000    -3.363000000    -0.606000000
C     2.923000000    -3.086000000     0.528000000
H     2.251000000    -2.226000000     0.390000000
C     1.950000000    -4.194000000     0.873000000
C     1.351000000    -4.067000000     2.118000000
H     1.657000000    -3.273000000     2.794000000
C     1.590000000    -5.188000000    -0.036000000
H     1.967000000    -5.187000000    -1.055000000
C     0.692000000    -6.190000000     0.376000000
O     0.346000000    -7.170000000    -0.522000000
C     0.070000000    -6.060000000     1.599000000
H    -0.680000000    -6.800000000     1.866000000
C     0.383000000    -5.023000000     2.494000000
O    -0.381000000    -4.933000000     3.679000000
C    -0.070000000    -4.162000000     4.827000000
C    -0.867000000    -3.145000000     5.234000000
H    -1.709000000    -2.898000000     4.593000000
C     1.187000000    -4.399000000     5.405000000
H     1.741000000    -5.255000000     5.026000000
C     1.587000000    -3.667000000     6.523000000
H     2.570000000    -3.889000000     6.931000000
C     0.789000000    -2.582000000     6.883000000
H     1.298000000    -1.911000000     7.571000000
C    -0.448000000    -2.341000000     6.284000000
O    -1.205000000    -1.255000000     6.709000000
C    -1.153000000    -0.015000000     6.113000000
C    -2.093000000     0.938000000     6.404000000
H    -2.876000000     0.679000000     7.111000000
C    -2.140000000     2.064000000     5.612000000
O    -3.169000000     2.880000000     5.770000000
C    -3.429000000     3.870000000     4.866000000
C    -4.118000000     3.537000000     3.734000000
H    -4.440000000     2.528000000     3.488000000
C    -3.369000000     5.165000000     5.254000000
H    -3.109000000     5.351000000     6.293000000
C    -3.881000000     6.197000000     4.484000000
H    -3.838000000     7.215000000     4.863000000
C    -4.500000000     5.886000000     3.262000000
H    -4.983000000     6.680000000     2.699000000
C    -4.611000000     4.550000000     2.885000000
O    -5.287000000     4.301000000     1.725000000
C    -4.644000000     3.923000000     0.504000000
C    -5.412000000     3.326000000    -0.469000000
H    -6.454000000     3.135000000    -0.227000000
C    -4.929000000     3.083000000    -1.706000000
O    -5.860000000     2.584000000    -2.550000000
C    -5.411000000     1.882000000    -3.566000000
C    -5.095000000     0.478000000    -3.440000000
H    -5.179000000    -0.005000000    -2.470000000
C    -5.201000000     2.495000000    -4.768000000
H    -5.464000000     3.541000000    -4.903000000
C    -4.649000000     1.782000000    -5.869000000
H    -4.423000000     2.360000000    -6.762000000
C    -4.327000000     0.415000000    -5.815000000
H    -4.008000000    -0.153000000    -6.684000000
C    -4.472000000    -0.161000000    -4.527000000
O    -4.172000000    -1.505000000    -4.424000000
C    -2.964000000    -2.056000000    -4.594000000
C    -2.882000000    -3.428000000    -4.637000000
H    -3.721000000    -4.118000000    -4.588000000
C    -1.636000000    -4.029000000    -4.622000000
O    -1.561000000    -5.347000000    -4.621000000
C    -0.552000000    -6.006000000    -3.917000000
C     0.568000000    -6.475000000    -4.639000000
H     0.589000000    -6.375000000    -5.721000000
C     1.598000000    -7.169000000    -3.972000000
H     2.403000000    -7.567000000    -4.584000000
C     1.466000000    -7.458000000    -2.585000000
H     2.082000000    -8.107000000    -1.969000000
C     0.376000000    -6.966000000    -1.862000000
C    -0.638000000    -6.242000000    -2.529000000
H    -1.526000000    -5.858000000    -2.033000000
O    -6.472000000    -4.033000000     4.886000000
H    -7.365000000    -3.735000000     5.061000000
H    -5.915000000    -3.404000000     5.345000000
O    -7.705000000     0.645000000    -0.946000000
H    -7.001000000     0.533000000    -0.308000000
H    -7.280000000     1.044000000    -1.706000000
O    -6.947000000    -2.432000000    -2.373000000
H    -7.658000000    -1.792000000    -2.342000000
H    -6.313000000    -2.117000000    -1.729000000
O    -4.374000000    -6.866000000     0.988000000
H    -4.121000000    -5.969000000     0.769000000
H    -4.159000000    -7.373000000     0.204000000
O    -9.082000000    -5.260000000     0.503000000
H    -8.917000000    -5.914000000    -0.177000000
H    -8.211000000    -5.014000000     0.816000000
O    -6.465000000    -5.031000000    -1.831000000
H    -6.723000000    -4.129000000    -2.022000000
H    -5.611000000    -4.952000000    -1.406000000
O    -6.208000000    -4.161000000     2.195000000
H    -6.421000000    -4.149000000     3.128000000
H    -5.276000000    -3.945000000     2.160000000
O    -2.532000000    -3.718000000     1.594000000
H    -1.686000000    -4.028000000     1.919000000
H    -2.838000000    -3.109000000     2.265000000
O    -5.629000000     1.262000000     5.935000000
H    -5.776000000     0.907000000     5.058000000
H    -4.827000000     1.778000000     5.853000000
O   -10.701000000     0.886000000    -1.507000000
H    -9.845000000     1.309000000    -1.435000000
H   -10.536000000    -0.028000000    -1.277000000
O    -8.112000000    -2.574000000    -5.129000000
H    -7.559000000    -2.791000000    -4.379000000
H    -8.989000000    -2.473000000    -4.759000000
O   -10.677000000    -1.664000000    -0.577000000
H   -10.951000000    -2.509000000    -0.220000000
H   -10.154000000    -1.268000000     0.119000000
O    -7.378000000    -1.726000000     1.862000000
H    -7.009000000    -2.599000000     1.996000000
H    -6.806000000    -1.322000000     1.209000000
O    -7.591000000     1.816000000     1.866000000
H    -6.824000000     1.248000000     1.935000000
H    -7.317000000     2.638000000     2.273000000
O    -5.950000000    -0.101000000     3.556000000
H    -5.948000000    -0.302000000     2.621000000
H    -6.740000000    -0.525000000     3.891000000
O    -3.691000000    -2.027000000     3.298000000
H    -4.095000000    -1.917000000     4.158000000
H    -3.798000000    -1.175000000     2.873000000
O   -10.042000000    -0.899000000     4.125000000
H    -9.851000000    -0.460000000     3.296000000
H    -9.295000000    -0.687000000     4.685000000
O    -9.444000000     0.021000000     1.686000000
H    -8.811000000    -0.693000000     1.612000000
H    -8.934000000     0.813000000     1.516000000
O    -4.357000000    -4.341000000    -0.511000000
H    -4.738000000    -3.468000000    -0.605000000
H    -3.710000000    -4.246000000     0.188000000
