201
-1246.83866
C    -2.266000000     0.518000000     3.946000000
H    -2.374000000     1.514000000     3.525000000
C    -0.971000000     0.038000000     4.168000000
C    -0.930000000    -1.192000000     4.842000000
H     0.018000000    -1.631000000     5.144000000
C     0.243000000     0.856000000     3.714000000
O    -0.044000000     2.277000000     3.893000000
H     0.407000000     0.537000000     2.674000000
O     1.404000000     0.605000000     4.458000000
C     2.627000000     0.492000000     3.803000000
C     3.005000000    -0.826000000     3.466000000
H     2.360000000    -1.616000000     3.842000000
C     4.022000000    -1.026000000     2.512000000
O     4.178000000    -2.303000000     1.935000000
C     4.650000000     0.080000000     1.913000000
C     5.624000000    -0.158000000     0.702000000
H     6.397000000     0.605000000     0.586000000
C     4.946000000    -0.306000000    -0.672000000
C     4.882000000     0.823000000    -1.444000000
H     5.334000000     1.768000000    -1.153000000
H     6.152000000    -1.106000000     0.821000000
C     4.313000000     1.342000000     2.352000000
H     4.838000000     2.183000000     1.907000000
C     3.258000000     1.584000000     3.239000000
C     2.780000000     2.969000000     3.564000000
H     3.569000000     3.721000000     3.630000000
H     2.419000000     3.064000000     4.590000000
C     1.709000000     3.477000000     2.607000000
C     2.075000000     4.162000000     1.442000000
H     3.116000000     4.355000000     1.197000000
C     0.328000000     3.213000000     2.907000000
C    -0.594000000     3.891000000     2.160000000
H    -1.666000000     3.931000000     2.335000000
C    -0.201000000     4.672000000     1.034000000
O    -1.197000000     5.168000000     0.143000000
C    -1.581000000     4.226000000    -0.963000000
C    -3.066000000     4.170000000    -1.153000000
C    -3.561000000     3.873000000    -2.406000000
H    -2.826000000     3.807000000    -3.204000000
C    -4.008000000     4.103000000    -0.114000000
H    -3.575000000     4.389000000     0.841000000
O    -0.832000000     4.844000000    -2.076000000
H    -1.198000000     3.209000000    -0.795000000
C     1.093000000     4.768000000     0.642000000
C     1.470000000     5.543000000    -0.613000000
H     2.393000000     6.102000000    -0.447000000
H     0.824000000     6.406000000    -0.787000000
C     1.492000000     4.526000000    -1.780000000
C     2.635000000     3.797000000    -2.172000000
H     3.548000000     4.048000000    -1.638000000
C     0.328000000     4.281000000    -2.541000000
C     0.317000000     3.309000000    -3.531000000
H    -0.622000000     3.057000000    -4.017000000
C     1.520000000     2.634000000    -3.897000000
O     1.386000000     1.471000000    -4.646000000
C     1.391000000     0.185000000    -3.931000000
C     0.238000000    -0.738000000    -4.359000000
C    -1.102000000    -0.353000000    -4.306000000
H    -1.282000000     0.674000000    -4.001000000
C     0.577000000    -2.122000000    -4.567000000
H     1.591000000    -2.505000000    -4.490000000
O     2.711000000    -0.405000000    -4.125000000
H     1.247000000     0.456000000    -2.875000000
C     2.701000000     2.843000000    -3.128000000
C     3.978000000     2.101000000    -3.458000000
H     4.839000000     2.706000000    -3.168000000
H     4.075000000     1.927000000    -4.531000000
C     4.153000000     0.846000000    -2.676000000
C     3.478000000    -0.333000000    -2.990000000
C     3.613000000    -1.534000000    -2.239000000
H     2.998000000    -2.413000000    -2.416000000
C     4.310000000    -1.511000000    -1.033000000
O     4.146000000    -2.675000000    -0.311000000
C     3.354000000    -2.664000000     0.887000000
H     2.731000000    -1.765000000     0.771000000
C     2.548000000    -3.936000000     1.097000000
C     2.257000000    -4.412000000     2.372000000
H     2.606000000    -3.908000000     3.270000000
C     2.064000000    -4.606000000    -0.006000000
H     2.132000000    -4.303000000    -1.048000000
C     1.375000000    -5.816000000     0.127000000
O     0.761000000    -6.532000000    -0.943000000
C     1.119000000    -6.281000000     1.421000000
H     0.555000000    -7.208000000     1.486000000
C     1.598000000    -5.641000000     2.532000000
O     1.393000000    -6.037000000     3.817000000
C     0.849000000    -5.322000000     4.799000000
C    -0.278000000    -4.469000000     4.720000000
H    -0.865000000    -4.491000000     3.805000000
C     1.426000000    -5.583000000     6.019000000
H     2.362000000    -6.123000000     6.142000000
C     0.906000000    -5.052000000     7.165000000
H     1.369000000    -5.275000000     8.122000000
C    -0.328000000    -4.343000000     7.091000000
H    -0.843000000    -4.075000000     8.010000000
C    -0.836000000    -3.927000000     5.854000000
O    -1.993000000    -3.196000000     5.831000000
C    -2.070000000    -1.914000000     5.232000000
C    -3.319000000    -1.431000000     4.861000000
H    -4.272000000    -1.916000000     5.056000000
C    -3.431000000    -0.227000000     4.221000000
O    -4.622000000     0.257000000     3.870000000
C    -5.021000000     1.542000000     3.564000000
C    -5.240000000     1.905000000     2.273000000
H    -5.243000000     1.213000000     1.435000000
C    -4.972000000     2.419000000     4.644000000
H    -4.716000000     2.017000000     5.621000000
C    -5.327000000     3.761000000     4.351000000
H    -5.251000000     4.530000000     5.115000000
C    -5.718000000     4.143000000     3.034000000
H    -5.900000000     5.197000000     2.839000000
C    -5.771000000     3.188000000     2.027000000
O    -6.151000000     3.594000000     0.839000000
C    -5.310000000     3.735000000    -0.217000000
C    -5.787000000     3.491000000    -1.517000000
H    -6.827000000     3.210000000    -1.659000000
C    -4.937000000     3.658000000    -2.637000000
O    -5.382000000     3.419000000    -3.881000000
C    -4.759000000     2.598000000    -4.746000000
C    -4.481000000     1.308000000    -4.308000000
H    -4.819000000     1.065000000    -3.304000000
C    -4.552000000     2.978000000    -6.080000000
H    -4.770000000     4.006000000    -6.354000000
C    -3.782000000     2.185000000    -6.869000000
H    -3.421000000     2.733000000    -7.736000000
C    -3.412000000     0.920000000    -6.419000000
H    -2.813000000     0.202000000    -6.973000000
C    -3.831000000     0.434000000    -5.176000000
O    -3.433000000    -0.812000000    -4.718000000
C    -2.095000000    -1.233000000    -4.738000000
C    -1.750000000    -2.536000000    -5.034000000
H    -2.550000000    -3.212000000    -5.326000000
C    -0.424000000    -3.052000000    -4.818000000
O    -0.184000000    -4.373000000    -5.164000000
C     0.627000000    -5.187000000    -4.311000000
C     1.854000000    -5.678000000    -4.835000000
H     2.116000000    -5.403000000    -5.854000000
C     2.589000000    -6.575000000    -4.082000000
H     3.486000000    -7.001000000    -4.525000000
C     2.177000000    -6.881000000    -2.778000000
H     2.807000000    -7.572000000    -2.225000000
C     1.038000000    -6.371000000    -2.241000000
C     0.232000000    -5.544000000    -2.996000000
H    -0.710000000    -5.157000000    -2.617000000
O    -5.330000000    -3.177000000    -6.166000000
H    -4.581000000    -3.743000000    -6.351000000
H    -6.088000000    -3.673000000    -6.476000000
O    -4.692000000    -4.950000000    -2.308000000
H    -4.121000000    -4.507000000    -1.681000000
H    -5.003000000    -5.726000000    -1.843000000
O    -3.310000000    -6.570000000    -4.400000000
H    -3.364000000    -5.833000000    -3.792000000
H    -2.737000000    -7.200000000    -3.963000000
O    -2.022000000    -8.077000000    -2.292000000
H    -1.869000000    -8.862000000    -1.765000000
H    -2.128000000    -7.375000000    -1.650000000
O    -5.764000000    -4.943000000     0.829000000
H    -5.295000000    -4.134000000     0.622000000
H    -6.558000000    -4.652000000     1.277000000
O    -4.902000000    -5.543000000     5.139000000
H    -5.009000000    -4.902000000     5.841000000
H    -4.629000000    -5.025000000     4.381000000
O    -2.644000000    -6.290000000    -0.266000000
H    -2.690000000    -5.347000000    -0.107000000
H    -2.268000000    -6.651000000     0.537000000
O    -9.615000000    -3.600000000    -0.338000000
H    -9.830000000    -3.850000000     0.561000000
H    -8.678000000    -3.404000000    -0.314000000
O    -5.689000000    -7.169000000     3.228000000
H    -4.975000000    -6.858000000     2.670000000
H    -5.630000000    -6.628000000     4.016000000
O    -7.113000000    -0.998000000    -3.519000000
H    -6.869000000    -0.898000000    -4.439000000
H    -8.035000000    -1.254000000    -3.542000000
O    -7.237000000    -3.942000000    -3.073000000
H    -6.443000000    -4.476000000    -3.047000000
H    -6.970000000    -3.138000000    -3.518000000
O    -7.489000000    -0.054000000     1.263000000
H    -7.140000000     0.327000000     0.457000000
H    -7.337000000    -0.994000000     1.169000000
O    -5.459000000    -7.141000000    -0.520000000
H    -4.513000000    -7.283000000    -0.568000000
H    -5.562000000    -6.430000000     0.112000000
O    -6.901000000    -2.562000000    -0.568000000
H    -6.770000000    -2.719000000    -1.503000000
H    -6.041000000    -2.292000000    -0.247000000
O    -5.907000000     0.234000000    -0.906000000
H    -5.336000000    -0.419000000    -0.502000000
H    -6.206000000    -0.179000000    -1.717000000
O    -3.720000000    -4.580000000     2.874000000
H    -4.221000000    -3.766000000     2.925000000
H    -3.447000000    -4.636000000     1.958000000
O    -2.417000000    -7.927000000     2.103000000
H    -3.228000000    -8.320000000     2.423000000
H    -1.799000000    -8.028000000     2.827000000
O    -7.358000000    -3.706000000     2.932000000
H    -7.634000000    -3.757000000     3.847000000
H    -6.612000000    -3.106000000     2.939000000
O    -5.014000000    -2.127000000     2.611000000
H    -4.902000000    -1.337000000     3.140000000
H    -4.903000000    -1.828000000     1.708000000
