201
-1232.71614
C    -2.733000000    -3.081000000    -3.210000000
H    -2.756000000    -2.563000000    -4.166000000
C    -3.207000000    -2.593000000    -1.956000000
C    -3.156000000    -3.357000000    -0.809000000
H    -3.442000000    -2.979000000     0.169000000
C    -3.577000000    -1.130000000    -1.791000000
O    -3.928000000    -0.493000000    -2.978000000
H    -2.719000000    -0.540000000    -1.435000000
O    -4.667000000    -0.920000000    -0.869000000
C    -4.583000000     0.094000000    -0.022000000
C    -4.306000000    -0.202000000     1.322000000
H    -4.265000000    -1.221000000     1.697000000
C    -4.098000000     0.802000000     2.274000000
O    -3.625000000     0.384000000     3.477000000
C    -4.100000000     2.153000000     1.866000000
C    -3.650000000     3.226000000     2.858000000
H    -3.939000000     4.222000000     2.517000000
C    -2.152000000     3.321000000     2.966000000
C    -1.530000000     4.286000000     2.201000000
H    -2.132000000     4.964000000     1.600000000
H    -4.155000000     3.121000000     3.820000000
C    -4.538000000     2.437000000     0.606000000
H    -4.666000000     3.458000000     0.255000000
C    -4.733000000     1.427000000    -0.379000000
C    -5.098000000     1.808000000    -1.821000000
H    -5.634000000     2.759000000    -1.819000000
H    -5.856000000     1.097000000    -2.157000000
C    -3.864000000     1.808000000    -2.696000000
C    -3.019000000     2.984000000    -2.851000000
H    -3.342000000     3.921000000    -2.404000000
C    -3.307000000     0.676000000    -3.227000000
C    -2.089000000     0.562000000    -3.856000000
H    -1.569000000    -0.333000000    -4.188000000
C    -1.376000000     1.720000000    -4.059000000
O    -0.144000000     1.680000000    -4.599000000
C     1.033000000     1.561000000    -3.841000000
C     1.937000000     0.430000000    -4.330000000
C     3.309000000     0.330000000    -3.959000000
H     3.650000000     1.204000000    -3.410000000
C     1.465000000    -0.559000000    -5.173000000
H     0.444000000    -0.603000000    -5.543000000
O     1.689000000     2.828000000    -3.747000000
H     0.766000000     1.288000000    -2.809000000
C    -1.791000000     2.940000000    -3.589000000
C    -0.942000000     4.220000000    -3.386000000
H    -1.601000000     5.083000000    -3.271000000
H    -0.595000000     4.465000000    -4.392000000
C     0.167000000     4.135000000    -2.347000000
C    -0.066000000     4.711000000    -1.103000000
H    -1.047000000     5.006000000    -0.739000000
C     1.410000000     3.598000000    -2.638000000
C     2.399000000     3.541000000    -1.589000000
H     3.319000000     2.991000000    -1.771000000
C     2.175000000     4.161000000    -0.368000000
O     3.030000000     3.986000000     0.685000000
C     2.684000000     2.979000000     1.675000000
C     3.927000000     2.185000000     2.168000000
C     4.760000000     1.609000000     1.194000000
H     4.537000000     1.599000000     0.130000000
C     4.045000000     1.697000000     3.453000000
H     3.290000000     2.074000000     4.138000000
O     2.051000000     3.675000000     2.786000000
H     1.829000000     2.371000000     1.342000000
C     0.929000000     4.721000000    -0.096000000
C     0.565000000     5.408000000     1.147000000
H    -0.054000000     6.295000000     0.996000000
H     1.454000000     5.765000000     1.672000000
C    -0.103000000     4.410000000     2.075000000
C     0.697000000     3.628000000     2.944000000
C     0.111000000     2.723000000     3.799000000
H     0.652000000     2.033000000     4.442000000
C    -1.299000000     2.538000000     3.772000000
O    -1.801000000     1.520000000     4.449000000
C    -2.165000000     0.383000000     3.670000000
H    -1.724000000     0.493000000     2.669000000
C    -1.727000000    -0.870000000     4.343000000
C    -2.537000000    -1.979000000     4.434000000
H    -3.523000000    -1.958000000     3.978000000
C    -0.438000000    -0.936000000     4.863000000
H     0.280000000    -0.131000000     4.727000000
C     0.058000000    -2.167000000     5.408000000
O     1.388000000    -2.439000000     5.858000000
C    -0.815000000    -3.271000000     5.483000000
H    -0.451000000    -4.231000000     5.841000000
C    -2.115000000    -3.148000000     4.973000000
O    -2.888000000    -4.328000000     4.939000000
C    -3.463000000    -4.826000000     3.796000000
C    -2.668000000    -4.952000000     2.659000000
H    -1.638000000    -4.612000000     2.733000000
C    -4.841000000    -4.992000000     3.611000000
H    -5.510000000    -4.774000000     4.439000000
C    -5.406000000    -5.393000000     2.395000000
H    -6.474000000    -5.555000000     2.273000000
C    -4.540000000    -5.511000000     1.270000000
H    -4.977000000    -5.812000000     0.321000000
C    -3.190000000    -5.323000000     1.410000000
O    -2.301000000    -5.382000000     0.361000000
C    -2.538000000    -4.607000000    -0.816000000
C    -2.246000000    -5.176000000    -2.090000000
H    -1.908000000    -6.205000000    -2.183000000
C    -2.348000000    -4.388000000    -3.263000000
O    -2.038000000    -5.003000000    -4.447000000
C    -1.402000000    -4.360000000    -5.495000000
C    -0.162000000    -3.797000000    -5.254000000
H     0.331000000    -3.976000000    -4.302000000
C    -2.024000000    -4.186000000    -6.780000000
H    -3.021000000    -4.581000000    -6.956000000
C    -1.457000000    -3.408000000    -7.809000000
H    -2.019000000    -3.190000000    -8.713000000
C    -0.179000000    -2.953000000    -7.586000000
H     0.333000000    -2.401000000    -8.370000000
C     0.448000000    -3.131000000    -6.343000000
O     1.767000000    -2.853000000    -6.140000000
C     2.212000000    -1.711000000    -5.444000000
C     3.548000000    -1.844000000    -5.096000000
H     4.210000000    -2.683000000    -5.292000000
C     4.076000000    -0.792000000    -4.362000000
O     5.385000000    -0.987000000    -3.859000000
C     5.999000000    -0.145000000    -3.017000000
C     5.940000000    -0.489000000    -1.676000000
H     5.564000000    -1.453000000    -1.341000000
C     6.823000000     0.925000000    -3.437000000
H     7.078000000     1.153000000    -4.469000000
C     7.606000000     1.646000000    -2.497000000
H     8.262000000     2.446000000    -2.831000000
C     7.410000000     1.413000000    -1.188000000
H     7.940000000     2.006000000    -0.446000000
C     6.641000000     0.319000000    -0.761000000
O     6.673000000     0.115000000     0.569000000
C     5.836000000     0.743000000     1.516000000
C     6.012000000     0.359000000     2.870000000
H     6.857000000    -0.311000000     3.003000000
C     5.064000000     0.751000000     3.821000000
O     5.219000000     0.236000000     5.089000000
C     4.067000000    -0.030000000     5.868000000
C     3.702000000     0.830000000     6.877000000
H     4.271000000     1.717000000     7.142000000
C     2.549000000     0.602000000     7.564000000
H     2.203000000     1.146000000     8.439000000
C     1.783000000    -0.583000000     7.282000000
H     0.793000000    -0.742000000     7.703000000
C     2.245000000    -1.477000000     6.343000000
C     3.391000000    -1.248000000     5.647000000
H     3.718000000    -1.997000000     4.931000000
O     3.957000000    -9.179000000    -2.473000000
H     3.510000000    -8.404000000    -2.815000000
H     3.293000000    -9.626000000    -1.947000000
O     2.889000000    -7.009000000     5.093000000
H     2.338000000    -7.792000000     5.070000000
H     2.610000000    -6.498000000     4.333000000
O     5.955000000    -4.817000000     3.636000000
H     5.442000000    -4.063000000     3.345000000
H     5.967000000    -4.745000000     4.590000000
O     0.795000000    -6.792000000     0.763000000
H     0.973000000    -5.938000000     0.368000000
H     0.315000000    -7.272000000     0.089000000
O     6.619000000    -6.869000000     0.255000000
H     5.777000000    -6.552000000     0.580000000
H     7.052000000    -7.235000000     1.027000000
O     8.194000000    -3.326000000     1.850000000
H     8.459000000    -2.419000000     2.005000000
H     7.390000000    -3.256000000     1.335000000
O     2.963000000    -8.693000000     1.309000000
H     2.309000000    -8.026000000     1.098000000
H     3.787000000    -8.330000000     0.986000000
O    -1.637000000    -7.715000000     2.324000000
H    -1.348000000    -7.553000000     3.222000000
H    -1.565000000    -6.864000000     1.892000000
O     6.122000000    -3.338000000     0.204000000
H     5.454000000    -3.335000000     0.890000000
H     5.755000000    -3.893000000    -0.484000000
O     4.399000000    -6.031000000     1.332000000
H     4.538000000    -5.720000000     2.227000000
H     3.876000000    -5.345000000     0.918000000
O     6.202000000    -5.056000000    -2.223000000
H     5.343000000    -5.470000000    -2.301000000
H     6.247000000    -4.455000000    -2.966000000
O     1.597000000    -7.704000000    -3.931000000
H     1.347000000    -7.291000000    -4.757000000
H     1.677000000    -8.634000000    -4.142000000
O     2.122000000    -5.351000000     3.033000000
H     2.183000000    -5.801000000     2.190000000
H     2.336000000    -4.440000000     2.834000000
O     8.690000000    -4.696000000    -0.929000000
H     7.837000000    -4.856000000    -1.334000000
H     8.488000000    -4.490000000    -0.017000000
O    -0.413000000    -8.060000000    -1.320000000
H    -1.307000000    -8.208000000    -1.628000000
H     0.099000000    -7.942000000    -2.120000000
O     6.202000000    -9.018000000    -1.054000000
H     6.395000000    -8.227000000    -0.552000000
H     5.300000000    -8.898000000    -1.353000000
O     3.809000000    -6.148000000    -2.693000000
H     3.137000000    -6.246000000    -3.367000000
H     3.318000000    -6.070000000    -1.875000000
O     1.231000000    -9.052000000     3.461000000
H     1.826000000    -9.046000000     2.712000000
H     0.358000000    -8.982000000     3.074000000
O     4.894000000    -2.351000000     2.858000000
H     5.109000000    -1.520000000     2.436000000
H     4.263000000    -2.763000000     2.268000000
