201
-1246.13891
C    -3.255000000     0.761000000     3.993000000
H    -3.533000000     1.781000000     3.742000000
C    -1.928000000     0.348000000     4.044000000
C    -1.632000000    -0.982000000     4.323000000
H    -0.603000000    -1.326000000     4.395000000
C    -0.817000000     1.418000000     3.722000000
O    -1.404000000     2.709000000     3.744000000
H    -0.404000000     1.263000000     2.715000000
O     0.255000000     1.278000000     4.730000000
C     1.557000000     1.284000000     4.226000000
C     2.199000000     0.136000000     4.065000000
H     1.744000000    -0.771000000     4.453000000
C     3.426000000    -0.028000000     3.481000000
O     3.815000000    -1.311000000     3.227000000
C     3.930000000     1.046000000     2.878000000
C     5.145000000     0.950000000     1.944000000
H     5.913000000     1.719000000     2.050000000
C     4.772000000     0.653000000     0.500000000
C     4.614000000     1.749000000    -0.345000000
H     4.733000000     2.768000000     0.016000000
H     5.750000000     0.104000000     2.277000000
C     3.251000000     2.302000000     2.944000000
H     3.593000000     3.048000000     2.231000000
C     2.099000000     2.475000000     3.709000000
C     1.343000000     3.818000000     3.761000000
H     2.035000000     4.662000000     3.712000000
H     0.883000000     3.863000000     4.751000000
C     0.290000000     4.003000000     2.689000000
C     0.709000000     4.564000000     1.497000000
H     1.763000000     4.808000000     1.393000000
C    -1.033000000     3.525000000     2.703000000
C    -1.938000000     3.715000000     1.743000000
H    -2.895000000     3.206000000     1.823000000
C    -1.521000000     4.427000000     0.578000000
O    -2.422000000     4.489000000    -0.417000000
C    -2.220000000     3.516000000    -1.405000000
C    -3.576000000     2.995000000    -1.837000000
C    -3.757000000     2.449000000    -3.163000000
H    -2.911000000     2.366000000    -3.841000000
C    -4.544000000     2.921000000    -0.893000000
H    -4.467000000     3.289000000     0.127000000
O    -1.482000000     4.082000000    -2.550000000
H    -1.642000000     2.676000000    -0.992000000
C    -0.178000000     4.848000000     0.450000000
C     0.408000000     5.593000000    -0.770000000
H     1.138000000     6.389000000    -0.612000000
H    -0.378000000     6.193000000    -1.232000000
C     0.856000000     4.528000000    -1.810000000
C     2.207000000     4.163000000    -1.861000000
H     2.919000000     4.741000000    -1.277000000
C    -0.071000000     3.881000000    -2.615000000
C     0.384000000     2.839000000    -3.420000000
H    -0.355000000     2.374000000    -4.068000000
C     1.704000000     2.404000000    -3.418000000
O     2.017000000     1.346000000    -4.243000000
C     2.159000000     0.115000000    -3.636000000
C     1.549000000    -1.022000000    -4.483000000
C     0.370000000    -0.830000000    -5.227000000
H    -0.080000000     0.156000000    -5.310000000
C     2.199000000    -2.300000000    -4.486000000
H     3.106000000    -2.498000000    -3.921000000
O     3.542000000    -0.119000000    -3.362000000
H     1.658000000     0.140000000    -2.657000000
C     2.599000000     2.996000000    -2.562000000
C     4.092000000     2.696000000    -2.511000000
H     4.627000000     3.525000000    -2.043000000
H     4.556000000     2.586000000    -3.493000000
C     4.352000000     1.513000000    -1.716000000
C     4.023000000     0.232000000    -2.127000000
C     4.309000000    -0.847000000    -1.265000000
H     4.311000000    -1.856000000    -1.670000000
C     4.664000000    -0.651000000     0.063000000
O     4.622000000    -1.651000000     1.003000000
C     3.449000000    -1.780000000     1.907000000
H     2.571000000    -1.163000000     1.664000000
C     2.978000000    -3.239000000     1.941000000
C     2.501000000    -3.894000000     3.095000000
H     2.385000000    -3.230000000     3.948000000
C     2.926000000    -3.964000000     0.725000000
H     3.166000000    -3.436000000    -0.194000000
C     2.481000000    -5.299000000     0.729000000
O     2.443000000    -6.064000000    -0.426000000
C     2.139000000    -5.944000000     1.914000000
H     1.904000000    -7.005000000     1.932000000
C     2.133000000    -5.235000000     3.122000000
O     1.676000000    -5.771000000     4.303000000
C     0.708000000    -5.103000000     5.086000000
C    -0.354000000    -4.453000000     4.479000000
H    -0.406000000    -4.555000000     3.398000000
C     0.797000000    -5.071000000     6.465000000
H     1.621000000    -5.635000000     6.893000000
C    -0.146000000    -4.441000000     7.238000000
H    -0.050000000    -4.408000000     8.320000000
C    -1.197000000    -3.755000000     6.631000000
H    -1.957000000    -3.220000000     7.196000000
C    -1.297000000    -3.726000000     5.221000000
O    -2.397000000    -3.230000000     4.580000000
C    -2.668000000    -1.869000000     4.463000000
C    -4.029000000    -1.462000000     4.429000000
H    -4.813000000    -2.161000000     4.706000000
C    -4.261000000    -0.164000000     4.131000000
O    -5.588000000     0.138000000     3.968000000
C    -5.984000000     1.264000000     3.225000000
C    -6.184000000     1.150000000     1.848000000
H    -5.956000000     0.217000000     1.339000000
C    -6.117000000     2.462000000     3.799000000
H    -5.963000000     2.463000000     4.875000000
C    -6.533000000     3.598000000     3.077000000
H    -6.759000000     4.513000000     3.618000000
C    -6.697000000     3.472000000     1.680000000
H    -6.934000000     4.345000000     1.078000000
C    -6.573000000     2.235000000     1.087000000
O    -6.780000000     2.076000000    -0.268000000
C    -5.696000000     2.179000000    -1.200000000
C    -5.781000000     1.504000000    -2.391000000
H    -6.672000000     0.909000000    -2.571000000
C    -4.851000000     1.634000000    -3.386000000
O    -5.025000000     0.992000000    -4.601000000
C    -4.093000000     0.680000000    -5.597000000
C    -3.256000000    -0.447000000    -5.367000000
H    -3.408000000    -1.075000000    -4.493000000
C    -4.044000000     1.431000000    -6.738000000
H    -4.823000000     2.186000000    -6.812000000
C    -3.268000000     1.025000000    -7.766000000
H    -3.189000000     1.571000000    -8.702000000
C    -2.334000000    -0.038000000    -7.563000000
H    -1.705000000    -0.501000000    -8.319000000
C    -2.338000000    -0.782000000    -6.362000000
O    -1.520000000    -1.900000000    -6.326000000
C    -0.202000000    -1.916000000    -5.814000000
C     0.394000000    -3.207000000    -5.780000000
H    -0.093000000    -3.996000000    -6.348000000
C     1.580000000    -3.375000000    -5.145000000
O     2.246000000    -4.632000000    -5.120000000
C     2.891000000    -5.152000000    -4.010000000
C     4.277000000    -5.313000000    -4.105000000
H     4.779000000    -5.074000000    -5.039000000
C     5.030000000    -5.628000000    -2.988000000
H     6.111000000    -5.739000000    -3.006000000
C     4.330000000    -5.818000000    -1.798000000
H     4.917000000    -6.034000000    -0.909000000
C     2.934000000    -5.733000000    -1.676000000
C     2.228000000    -5.386000000    -2.854000000
H     1.148000000    -5.272000000    -2.891000000
O    -1.963000000    -2.125000000    -2.714000000
H    -1.057000000    -2.127000000    -2.404000000
H    -2.160000000    -3.046000000    -2.883000000
O    -7.676000000    -2.892000000     1.709000000
H    -7.768000000    -2.910000000     2.661000000
H    -6.849000000    -3.344000000     1.539000000
O    -3.266000000    -6.153000000     6.794000000
H    -3.559000000    -5.842000000     5.938000000
H    -3.367000000    -5.396000000     7.371000000
O     0.139000000    -9.567000000     3.456000000
H    -0.404000000    -8.860000000     3.805000000
H     0.130000000   -10.235000000     4.141000000
O     0.028000000    -7.953000000    -4.614000000
H    -0.191000000    -7.804000000    -3.695000000
H     0.008000000    -8.904000000    -4.714000000
O    -1.575000000    -7.505000000     4.425000000
H    -2.128000000    -7.972000000     5.052000000
H    -2.131000000    -6.799000000     4.094000000
O     0.007000000    -7.527000000    -1.675000000
H     0.510000000    -7.950000000    -0.979000000
H    -0.558000000    -6.905000000    -1.217000000
O    -1.832000000   -10.728000000    -1.300000000
H    -1.325000000    -9.971000000    -1.006000000
H    -2.215000000   -11.086000000    -0.500000000
O    -2.385000000    -4.859000000    -2.445000000
H    -1.979000000    -4.918000000    -1.580000000
H    -3.268000000    -5.206000000    -2.319000000
O    -6.779000000    -6.583000000    -2.147000000
H    -7.266000000    -6.121000000    -1.465000000
H    -5.864000000    -6.521000000    -1.871000000
O    -5.181000000    -9.630000000    -0.588000000
H    -5.586000000    -9.604000000     0.279000000
H    -4.244000000    -9.524000000    -0.418000000
O    -4.457000000    -5.999000000    -1.018000000
H    -4.333000000    -6.903000000    -0.729000000
H    -4.737000000    -5.532000000    -0.231000000
O    -4.590000000    -1.844000000    -1.511000000
H    -3.704000000    -1.730000000    -1.854000000
H    -5.006000000    -0.990000000    -1.634000000
O    -3.732000000    -6.128000000     3.153000000
H    -4.314000000    -5.550000000     3.646000000
H    -3.226000000    -5.539000000     2.594000000
O    -2.806000000    -7.880000000     0.557000000
H    -2.744000000    -8.098000000     1.487000000
H    -2.481000000    -6.982000000     0.500000000
O    -5.146000000    -3.890000000     0.874000000
H    -5.195000000    -3.031000000     0.454000000
H    -4.209000000    -4.081000000     0.918000000
O    -5.159000000    -8.727000000     2.642000000
H    -4.732000000    -9.531000000     2.938000000
H    -4.593000000    -8.024000000     2.963000000
O    -3.274000000    -4.252000000    -5.476000000
H    -2.625000000    -4.054000000    -4.800000000
H    -3.211000000    -5.199000000    -5.598000000
O    -0.291000000    -9.387000000     0.804000000
H    -1.088000000    -8.918000000     0.556000000
H    -0.109000000    -9.094000000     1.697000000
