201
-1227.49516
C    -3.719000000    -0.131000000     4.110000000
H    -4.008000000     0.898000000     3.909000000
C    -2.415000000    -0.410000000     4.499000000
C    -2.136000000    -1.763000000     4.685000000
H    -1.115000000    -1.877000000     5.040000000
C    -1.255000000     0.591000000     4.233000000
O    -1.626000000     1.927000000     4.414000000
H    -1.033000000     0.407000000     3.171000000
O    -0.073000000     0.406000000     4.999000000
C     1.191000000     0.536000000     4.482000000
C     1.735000000    -0.592000000     3.938000000
H     1.246000000    -1.549000000     4.102000000
C     2.950000000    -0.457000000     3.294000000
O     3.374000000    -1.648000000     2.682000000
C     3.572000000     0.820000000     3.041000000
C     4.892000000     0.876000000     2.248000000
H     5.493000000     1.771000000     2.416000000
C     4.634000000     0.827000000     0.742000000
C     4.526000000     1.993000000     0.021000000
H     4.655000000     2.937000000     0.544000000
H     5.448000000    -0.021000000     2.530000000
C     3.026000000     1.870000000     3.678000000
H     3.430000000     2.878000000     3.626000000
C     1.814000000     1.780000000     4.426000000
C     1.122000000     3.068000000     4.767000000
H     1.829000000     3.897000000     4.833000000
H     0.566000000     3.009000000     5.705000000
C     0.077000000     3.470000000     3.645000000
C     0.436000000     4.406000000     2.672000000
H     1.480000000     4.699000000     2.597000000
C    -1.157000000     2.855000000     3.506000000
C    -2.038000000     3.252000000     2.508000000
H    -3.013000000     2.775000000     2.460000000
C    -1.632000000     4.158000000     1.570000000
O    -2.419000000     4.266000000     0.447000000
C    -2.087000000     3.429000000    -0.672000000
C    -3.321000000     2.696000000    -1.201000000
C    -3.216000000     1.786000000    -2.289000000
H    -2.316000000     1.779000000    -2.898000000
C    -4.592000000     2.766000000    -0.549000000
H    -4.719000000     3.381000000     0.337000000
O    -1.568000000     4.338000000    -1.673000000
H    -1.326000000     2.683000000    -0.398000000
C    -0.370000000     4.667000000     1.584000000
C     0.197000000     5.619000000     0.460000000
H     1.049000000     6.145000000     0.896000000
H    -0.585000000     6.312000000     0.142000000
C     0.704000000     4.797000000    -0.721000000
C     2.070000000     4.528000000    -0.900000000
H     2.791000000     4.828000000    -0.143000000
C    -0.195000000     4.272000000    -1.699000000
C     0.309000000     3.538000000    -2.746000000
H    -0.421000000     3.022000000    -3.364000000
C     1.629000000     3.234000000    -2.866000000
O     1.933000000     2.364000000    -3.831000000
C     2.361000000     0.962000000    -3.668000000
C     1.783000000     0.003000000    -4.713000000
C     0.545000000     0.136000000    -5.357000000
H    -0.029000000     1.057000000    -5.296000000
C     2.410000000    -1.252000000    -4.738000000
H     3.246000000    -1.490000000    -4.084000000
O     3.816000000     0.705000000    -3.407000000
H     1.858000000     0.654000000    -2.740000000
C     2.504000000     3.725000000    -1.944000000
C     3.955000000     3.336000000    -2.099000000
H     4.570000000     4.165000000    -1.744000000
H     4.210000000     3.232000000    -3.156000000
C     4.225000000     1.997000000    -1.332000000
C     4.164000000     0.781000000    -2.084000000
C     4.423000000    -0.368000000    -1.398000000
H     4.198000000    -1.278000000    -1.950000000
C     4.661000000    -0.354000000    -0.036000000
O     4.536000000    -1.529000000     0.578000000
C     3.321000000    -1.847000000     1.264000000
H     2.551000000    -1.110000000     0.991000000
C     3.008000000    -3.298000000     0.980000000
C     2.013000000    -3.939000000     1.656000000
H     1.452000000    -3.497000000     2.476000000
C     3.659000000    -3.949000000    -0.050000000
H     4.453000000    -3.496000000    -0.638000000
C     3.400000000    -5.254000000    -0.343000000
O     4.051000000    -5.846000000    -1.444000000
C     2.451000000    -5.928000000     0.392000000
H     2.262000000    -6.979000000     0.188000000
C     1.672000000    -5.273000000     1.342000000
O     0.628000000    -6.013000000     1.994000000
C     0.168000000    -5.518000000     3.122000000
C    -1.144000000    -5.163000000     3.302000000
H    -1.876000000    -5.134000000     2.499000000
C     1.060000000    -5.580000000     4.191000000
H     2.092000000    -5.918000000     4.149000000
C     0.713000000    -4.985000000     5.375000000
H     1.427000000    -4.993000000     6.194000000
C    -0.578000000    -4.510000000     5.526000000
H    -0.776000000    -4.127000000     6.524000000
C    -1.555000000    -4.622000000     4.557000000
O    -2.819000000    -4.127000000     4.700000000
C    -3.091000000    -2.792000000     4.631000000
C    -4.417000000    -2.428000000     4.355000000
H    -5.165000000    -3.202000000     4.201000000
C    -4.745000000    -1.098000000     4.126000000
O    -6.034000000    -0.786000000     3.945000000
C    -6.497000000     0.370000000     3.241000000
C    -6.369000000     0.506000000     1.808000000
H    -5.870000000    -0.262000000     1.223000000
C    -7.308000000     1.275000000     3.945000000
H    -7.386000000     1.227000000     5.028000000
C    -7.782000000     2.438000000     3.284000000
H    -8.258000000     3.161000000     3.942000000
C    -7.704000000     2.575000000     1.911000000
H    -7.975000000     3.437000000     1.307000000
C    -6.980000000     1.619000000     1.194000000
O    -6.856000000     1.914000000    -0.192000000
C    -5.650000000     1.932000000    -0.857000000
C    -5.551000000     1.161000000    -2.032000000
H    -6.386000000     0.548000000    -2.359000000
C    -4.325000000     1.025000000    -2.708000000
O    -4.205000000     0.269000000    -3.853000000
C    -3.466000000     0.785000000    -4.892000000
C    -2.605000000    -0.067000000    -5.532000000
H    -2.387000000    -1.089000000    -5.233000000
C    -3.682000000     1.972000000    -5.497000000
H    -4.288000000     2.709000000    -4.975000000
C    -2.854000000     2.368000000    -6.556000000
H    -2.895000000     3.405000000    -6.879000000
C    -2.050000000     1.415000000    -7.258000000
H    -1.444000000     1.727000000    -8.105000000
C    -1.932000000     0.161000000    -6.769000000
O    -0.924000000    -0.634000000    -7.148000000
C     0.141000000    -0.841000000    -6.317000000
C     0.782000000    -2.085000000    -6.315000000
H     0.438000000    -2.864000000    -6.991000000
C     1.809000000    -2.278000000    -5.444000000
O     2.296000000    -3.538000000    -5.387000000
C     3.384000000    -4.042000000    -4.618000000
C     4.689000000    -3.855000000    -5.041000000
H     4.813000000    -3.544000000    -6.075000000
C     5.788000000    -4.419000000    -4.320000000
H     6.798000000    -4.394000000    -4.720000000
C     5.519000000    -5.017000000    -3.141000000
H     6.352000000    -5.460000000    -2.601000000
C     4.166000000    -5.195000000    -2.682000000
C     3.075000000    -4.707000000    -3.413000000
H     2.078000000    -4.818000000    -2.997000000
O    -4.685000000    -4.260000000     1.423000000
H    -4.384000000    -3.561000000     0.842000000
H    -5.595000000    -4.035000000     1.616000000
O    -4.391000000    -3.402000000    -5.725000000
H    -4.683000000    -4.281000000    -5.966000000
H    -3.937000000    -3.079000000    -6.504000000
O    -5.993000000    -3.421000000    -3.685000000
H    -5.375000000    -3.373000000    -4.415000000
H    -5.449000000    -3.327000000    -2.904000000
O    -1.838000000    -4.472000000    -4.505000000
H    -2.465000000    -4.384000000    -3.787000000
H    -2.224000000    -3.969000000    -5.222000000
O    -1.345000000    -7.382000000    -2.447000000
H    -2.285000000    -7.485000000    -2.593000000
H    -1.280000000    -6.714000000    -1.765000000
O    -8.806000000    -0.122000000    -3.250000000
H    -8.537000000    -0.995000000    -2.965000000
H    -9.126000000    -0.249000000    -4.143000000
O    -6.062000000    -0.751000000    -7.032000000
H    -5.599000000    -1.101000000    -6.271000000
H    -6.964000000    -0.638000000    -6.732000000
O    -4.262000000    -8.401000000    -2.446000000
H    -4.559000000    -7.613000000    -1.990000000
H    -3.897000000    -8.954000000    -1.756000000
O    -8.348000000    -2.871000000    -2.633000000
H    -7.466000000    -2.975000000    -2.990000000
H    -8.888000000    -3.471000000    -3.147000000
O    -7.317000000    -5.770000000     1.462000000
H    -7.662000000    -6.135000000     2.277000000
H    -7.004000000    -6.530000000     0.972000000
O    -5.936000000    -8.122000000     0.495000000
H    -5.373000000    -7.672000000     1.125000000
H    -6.405000000    -8.774000000     1.015000000
O    -1.326000000    -5.121000000    -0.783000000
H    -0.992000000    -4.569000000    -0.077000000
H    -1.955000000    -4.566000000    -1.245000000
O    -4.897000000    -5.668000000    -1.296000000
H    -4.221000000    -5.069000000    -1.613000000
H    -5.173000000    -5.296000000    -0.458000000
O    -7.391000000    -3.149000000     2.196000000
H    -7.580000000    -3.941000000     1.692000000
H    -7.429000000    -2.442000000     1.552000000
O    -9.346000000     0.290000000     0.015000000
H    -8.897000000     0.935000000    -0.531000000
H    -8.769000000    -0.474000000     0.007000000
O    -7.422000000    -1.926000000    -0.257000000
H    -7.849000000    -2.410000000    -0.963000000
H    -6.498000000    -1.903000000    -0.507000000
O    -4.134000000    -6.435000000     2.701000000
H    -4.189000000    -5.667000000     2.133000000
H    -4.701000000    -6.226000000     3.443000000
O     0.304000000    -5.971000000    -5.438000000
H    -0.275000000    -5.612000000    -4.766000000
H     0.871000000    -5.239000000    -5.682000000
O    -6.305000000    -6.473000000    -3.999000000
H    -5.961000000    -6.718000000    -3.140000000
H    -6.553000000    -5.554000000    -3.905000000
