201
-1241.02387
C    -3.505000000     1.120000000     4.077000000
H    -3.598000000     2.168000000     3.801000000
C    -2.251000000     0.513000000     4.258000000
C    -2.243000000    -0.872000000     4.564000000
H    -1.286000000    -1.323000000     4.813000000
C    -0.918000000     1.225000000     4.156000000
O    -1.052000000     2.669000000     4.274000000
H    -0.489000000     0.971000000     3.176000000
O     0.116000000     0.678000000     5.055000000
C     1.378000000     0.603000000     4.464000000
C     1.796000000    -0.706000000     4.234000000
H     1.098000000    -1.458000000     4.592000000
C     2.989000000    -1.006000000     3.538000000
O     3.105000000    -2.384000000     3.107000000
C     3.836000000     0.004000000     3.221000000
C     5.133000000    -0.258000000     2.443000000
H     5.795000000     0.586000000     2.648000000
C     4.886000000    -0.268000000     0.968000000
C     4.966000000     0.881000000     0.247000000
H     5.256000000     1.815000000     0.720000000
H     5.573000000    -1.178000000     2.832000000
C     3.496000000     1.301000000     3.642000000
H     4.198000000     2.093000000     3.392000000
C     2.266000000     1.618000000     4.144000000
C     1.927000000     3.083000000     4.299000000
H     2.888000000     3.599000000     4.345000000
H     1.433000000     3.313000000     5.245000000
C     1.006000000     3.576000000     3.217000000
C     1.505000000     4.239000000     2.151000000
H     2.571000000     4.443000000     2.078000000
C    -0.420000000     3.353000000     3.333000000
C    -1.224000000     3.755000000     2.258000000
H    -2.290000000     3.542000000     2.279000000
C    -0.657000000     4.349000000     1.115000000
O    -1.467000000     4.654000000     0.041000000
C    -1.361000000     3.829000000    -1.029000000
C    -2.720000000     3.537000000    -1.561000000
C    -2.982000000     3.294000000    -2.932000000
H    -2.126000000     3.330000000    -3.602000000
C    -3.813000000     3.170000000    -0.668000000
H    -3.628000000     3.238000000     0.401000000
O    -0.507000000     4.522000000    -1.993000000
H    -0.965000000     2.881000000    -0.635000000
C     0.689000000     4.639000000     1.061000000
C     1.393000000     5.455000000    -0.024000000
H     2.322000000     5.820000000     0.418000000
H     0.895000000     6.303000000    -0.498000000
C     1.708000000     4.430000000    -1.114000000
C     2.974000000     3.782000000    -1.035000000
H     3.711000000     4.084000000    -0.296000000
C     0.788000000     4.084000000    -2.059000000
C     1.148000000     3.132000000    -3.022000000
H     0.476000000     2.782000000    -3.803000000
C     2.366000000     2.516000000    -2.982000000
O     2.688000000     1.534000000    -3.883000000
C     2.505000000     0.207000000    -3.428000000
C     1.810000000    -0.795000000    -4.268000000
C     0.663000000    -0.282000000    -5.006000000
H     0.259000000     0.726000000    -4.952000000
C     2.084000000    -2.202000000    -4.315000000
H     2.855000000    -2.608000000    -3.665000000
O     3.799000000    -0.365000000    -3.086000000
H     1.931000000     0.250000000    -2.490000000
C     3.294000000     2.797000000    -1.976000000
C     4.686000000     2.174000000    -1.969000000
H     5.445000000     2.788000000    -1.479000000
H     5.087000000     2.091000000    -2.982000000
C     4.626000000     0.918000000    -1.106000000
C     4.237000000    -0.320000000    -1.719000000
C     4.171000000    -1.505000000    -1.035000000
H     3.941000000    -2.371000000    -1.650000000
C     4.462000000    -1.470000000     0.349000000
O     4.355000000    -2.614000000     1.083000000
C     3.048000000    -2.717000000     1.720000000
H     2.390000000    -1.922000000     1.338000000
C     2.232000000    -3.958000000     1.439000000
C     0.995000000    -4.146000000     1.973000000
H     0.615000000    -3.447000000     2.713000000
C     2.663000000    -4.861000000     0.453000000
H     3.634000000    -4.766000000    -0.027000000
C     1.865000000    -5.940000000     0.060000000
O     2.335000000    -6.736000000    -0.970000000
C     0.590000000    -6.020000000     0.618000000
H    -0.117000000    -6.735000000     0.205000000
C     0.165000000    -5.160000000     1.528000000
O    -1.086000000    -5.378000000     2.019000000
C    -1.325000000    -5.051000000     3.334000000
C    -2.236000000    -4.100000000     3.646000000
H    -2.788000000    -3.456000000     2.966000000
C    -0.531000000    -5.736000000     4.275000000
H     0.148000000    -6.535000000     3.987000000
C    -0.747000000    -5.407000000     5.657000000
H    -0.186000000    -5.957000000     6.409000000
C    -1.695000000    -4.506000000     6.023000000
H    -1.877000000    -4.379000000     7.088000000
C    -2.370000000    -3.784000000     5.020000000
O    -3.358000000    -2.833000000     5.314000000
C    -3.380000000    -1.555000000     4.777000000
C    -4.636000000    -0.952000000     4.645000000
H    -5.566000000    -1.478000000     4.844000000
C    -4.656000000     0.393000000     4.241000000
O    -5.976000000     0.794000000     3.977000000
C    -6.234000000     1.744000000     3.063000000
C    -5.800000000     1.620000000     1.752000000
H    -5.453000000     0.649000000     1.408000000
C    -6.857000000     2.913000000     3.536000000
H    -7.083000000     2.986000000     4.597000000
C    -7.210000000     3.861000000     2.611000000
H    -7.821000000     4.719000000     2.880000000
C    -6.851000000     3.756000000     1.266000000
H    -7.110000000     4.483000000     0.501000000
C    -6.188000000     2.605000000     0.855000000
O    -6.146000000     2.349000000    -0.438000000
C    -5.047000000     2.765000000    -1.217000000
C    -5.263000000     2.744000000    -2.601000000
H    -6.197000000     2.353000000    -2.996000000
C    -4.226000000     2.913000000    -3.420000000
O    -4.383000000     2.829000000    -4.839000000
C    -3.461000000     2.320000000    -5.723000000
C    -2.855000000     1.132000000    -5.384000000
H    -3.157000000     0.573000000    -4.502000000
C    -2.989000000     3.067000000    -6.833000000
H    -3.392000000     4.031000000    -7.133000000
C    -2.011000000     2.470000000    -7.647000000
H    -1.699000000     3.079000000    -8.492000000
C    -1.463000000     1.208000000    -7.343000000
H    -0.732000000     0.738000000    -7.995000000
C    -1.930000000     0.549000000    -6.222000000
O    -1.466000000    -0.768000000    -6.000000000
C    -0.133000000    -1.149000000    -5.750000000
C     0.080000000    -2.519000000    -5.696000000
H    -0.739000000    -3.167000000    -5.997000000
C     1.263000000    -3.053000000    -5.106000000
O     1.366000000    -4.491000000    -5.095000000
C     2.268000000    -5.145000000    -4.299000000
C     3.613000000    -5.229000000    -4.712000000
H     3.934000000    -4.934000000    -5.707000000
C     4.470000000    -5.897000000    -3.824000000
H     5.529000000    -5.964000000    -4.063000000
C     4.048000000    -6.345000000    -2.582000000
H     4.760000000    -6.778000000    -1.884000000
C     2.712000000    -6.262000000    -2.229000000
C     1.853000000    -5.552000000    -3.062000000
H     0.830000000    -5.337000000    -2.763000000
O    -4.290000000    -4.109000000     0.237000000
H    -3.779000000    -4.903000000     0.389000000
H    -3.963000000    -3.771000000    -0.597000000
O    -5.360000000    -1.405000000    -6.481000000
H    -5.162000000    -1.729000000    -7.360000000
H    -5.902000000    -0.629000000    -6.628000000
O    -5.223000000    -8.127000000    -3.188000000
H    -5.141000000    -8.482000000    -4.074000000
H    -4.409000000    -7.643000000    -3.048000000
O    -8.746000000    -3.909000000    -2.156000000
H    -8.726000000    -3.926000000    -3.113000000
H    -8.004000000    -4.454000000    -1.892000000
O    -5.581000000    -0.183000000    -4.021000000
H    -5.303000000    -0.663000000    -4.801000000
H    -4.964000000    -0.455000000    -3.341000000
O    -3.858000000    -3.124000000    -5.123000000
H    -3.510000000    -2.810000000    -4.288000000
H    -4.249000000    -2.349000000    -5.526000000
O    -8.280000000    -3.340000000    -5.420000000
H    -7.354000000    -3.115000000    -5.329000000
H    -8.339000000    -3.774000000    -6.271000000
O    -0.949000000    -7.224000000    -4.810000000
H    -1.210000000    -6.665000000    -5.542000000
H    -1.026000000    -6.661000000    -4.039000000
O    -7.622000000     0.856000000    -5.450000000
H    -7.134000000     1.440000000    -6.031000000
H    -6.960000000     0.497000000    -4.860000000
O    -8.223000000     0.324000000    -2.459000000
H    -7.376000000     0.375000000    -2.901000000
H    -8.786000000    -0.147000000    -3.074000000
O    -6.511000000    -5.760000000    -1.007000000
H    -5.775000000    -5.554000000    -1.584000000
H    -6.140000000    -5.726000000    -0.125000000
O    -1.958000000    -5.415000000    -2.979000000
H    -2.039000000    -5.907000000    -2.162000000
H    -2.503000000    -4.639000000    -2.846000000
O    -4.974000000    -4.919000000    -2.953000000
H    -5.410000000    -4.973000000    -3.804000000
H    -4.518000000    -4.078000000    -2.972000000
O    -6.687000000    -3.241000000     1.429000000
H    -6.796000000    -2.595000000     0.731000000
H    -5.871000000    -3.692000000     1.212000000
O    -8.054000000    -0.365000000     1.345000000
H    -7.628000000    -0.617000000     0.526000000
H    -7.332000000    -0.132000000     1.929000000
O    -3.619000000    -6.562000000     1.188000000
H    -4.366000000    -6.921000000     1.668000000
H    -2.879000000    -6.663000000     1.787000000
O    -6.560000000    -1.664000000    -0.731000000
H    -7.116000000    -1.865000000    -1.483000000
H    -5.704000000    -1.465000000    -1.112000000
O    -2.643000000    -7.262000000    -1.168000000
H    -2.303000000    -8.101000000    -0.857000000
H    -3.059000000    -6.872000000    -0.399000000
O    -2.043000000    -5.315000000    -6.695000000
H    -2.549000000    -5.781000000    -7.361000000
H    -2.702000000    -4.960000000    -6.099000000
