201
-1256.39801
C    -3.685000000     1.607000000     3.532000000
H    -3.528000000     2.529000000     2.979000000
C    -2.557000000     0.826000000     3.960000000
C    -2.762000000    -0.439000000     4.567000000
H    -1.924000000    -1.049000000     4.894000000
C    -1.131000000     1.414000000     3.862000000
O    -1.222000000     2.863000000     4.004000000
H    -0.826000000     1.289000000     2.813000000
O    -0.237000000     0.926000000     4.831000000
C     1.072000000     0.624000000     4.481000000
C     1.289000000    -0.702000000     4.199000000
H     0.516000000    -1.449000000     4.361000000
C     2.507000000    -1.090000000     3.641000000
O     2.622000000    -2.411000000     3.283000000
C     3.606000000    -0.202000000     3.509000000
C     4.943000000    -0.567000000     2.828000000
H     5.814000000     0.028000000     3.109000000
C     4.910000000    -0.630000000     1.329000000
C     5.196000000     0.469000000     0.556000000
H     5.440000000     1.377000000     1.103000000
H     5.248000000    -1.553000000     3.184000000
C     3.302000000     1.194000000     3.714000000
H     4.009000000     1.954000000     3.391000000
C     2.047000000     1.615000000     4.253000000
C     1.731000000     3.113000000     4.460000000
H     2.735000000     3.542000000     4.484000000
H     1.111000000     3.322000000     5.334000000
C     0.935000000     3.712000000     3.261000000
C     1.724000000     4.311000000     2.278000000
H     2.796000000     4.296000000     2.460000000
C    -0.436000000     3.629000000     3.079000000
C    -1.072000000     4.208000000     2.011000000
H    -2.152000000     4.125000000     1.913000000
C    -0.288000000     4.673000000     0.975000000
O    -0.912000000     4.980000000    -0.172000000
C    -0.791000000     4.077000000    -1.335000000
C    -2.140000000     3.929000000    -2.076000000
C    -2.164000000     3.787000000    -3.451000000
H    -1.245000000     3.761000000    -4.031000000
C    -3.350000000     3.771000000    -1.345000000
H    -3.323000000     3.909000000    -0.267000000
O     0.287000000     4.631000000    -2.155000000
H    -0.552000000     3.051000000    -1.017000000
C     1.097000000     4.818000000     1.111000000
C     2.024000000     5.307000000     0.018000000
H     2.991000000     5.542000000     0.469000000
H     1.610000000     6.223000000    -0.409000000
C     2.302000000     4.234000000    -0.980000000
C     3.435000000     3.444000000    -0.730000000
H     3.999000000     3.670000000     0.171000000
C     1.450000000     3.931000000    -2.011000000
C     1.709000000     2.899000000    -2.856000000
H     0.976000000     2.723000000    -3.639000000
C     2.825000000     2.141000000    -2.645000000
O     3.026000000     1.154000000    -3.524000000
C     2.832000000    -0.185000000    -3.048000000
C     1.956000000    -1.130000000    -3.965000000
C     0.690000000    -0.688000000    -4.276000000
H     0.418000000     0.349000000    -4.095000000
C     2.332000000    -2.453000000    -4.216000000
H     3.345000000    -2.841000000    -4.133000000
O     4.070000000    -0.777000000    -2.680000000
H     2.167000000    -0.088000000    -2.178000000
C     3.759000000     2.563000000    -1.682000000
C     5.043000000     1.680000000    -1.650000000
H     5.894000000     2.237000000    -1.252000000
H     5.407000000     1.506000000    -2.664000000
C     4.920000000     0.435000000    -0.846000000
C     4.511000000    -0.752000000    -1.437000000
C     4.214000000    -1.851000000    -0.694000000
H     3.829000000    -2.767000000    -1.135000000
C     4.406000000    -1.827000000     0.668000000
O     3.909000000    -2.889000000     1.375000000
C     2.556000000    -2.774000000     1.889000000
H     2.064000000    -1.917000000     1.406000000
C     1.693000000    -3.993000000     1.622000000
C     0.432000000    -4.214000000     2.173000000
H     0.041000000    -3.510000000     2.903000000
C     2.044000000    -4.863000000     0.529000000
H     2.905000000    -4.659000000    -0.102000000
C     1.268000000    -5.993000000     0.182000000
O     1.762000000    -6.966000000    -0.658000000
C     0.056000000    -6.148000000     0.739000000
H    -0.628000000    -6.966000000     0.530000000
C    -0.417000000    -5.196000000     1.672000000
O    -1.751000000    -5.319000000     2.161000000
C    -2.074000000    -4.900000000     3.420000000
C    -3.050000000    -3.877000000     3.621000000
H    -3.523000000    -3.425000000     2.753000000
C    -1.462000000    -5.486000000     4.553000000
H    -0.809000000    -6.333000000     4.353000000
C    -1.711000000    -4.961000000     5.810000000
H    -1.166000000    -5.419000000     6.631000000
C    -2.700000000    -3.938000000     5.997000000
H    -2.893000000    -3.380000000     6.910000000
C    -3.377000000    -3.405000000     4.899000000
O    -4.269000000    -2.291000000     5.001000000
C    -4.019000000    -1.017000000     4.525000000
C    -5.118000000    -0.242000000     4.102000000
H    -6.092000000    -0.700000000     3.949000000
C    -4.978000000     1.026000000     3.651000000
O    -6.074000000     1.644000000     3.059000000
C    -5.997000000     2.690000000     2.227000000
C    -5.853000000     2.580000000     0.819000000
H    -5.761000000     1.601000000     0.355000000
C    -6.338000000     3.951000000     2.713000000
H    -6.446000000     4.020000000     3.793000000
C    -6.464000000     5.103000000     1.911000000
H    -6.698000000     6.050000000     2.391000000
C    -6.187000000     4.933000000     0.507000000
H    -6.320000000     5.759000000    -0.186000000
C    -5.927000000     3.663000000    -0.016000000
O    -5.764000000     3.474000000    -1.397000000
C    -4.598000000     3.624000000    -2.009000000
C    -4.556000000     3.504000000    -3.368000000
H    -5.487000000     3.280000000    -3.882000000
C    -3.376000000     3.462000000    -4.050000000
O    -3.507000000     3.096000000    -5.385000000
C    -2.873000000     1.988000000    -5.886000000
C    -2.544000000     0.865000000    -5.092000000
H    -2.618000000     0.899000000    -4.008000000
C    -2.589000000     1.947000000    -7.213000000
H    -2.821000000     2.758000000    -7.899000000
C    -1.907000000     0.856000000    -7.757000000
H    -1.700000000     0.885000000    -8.824000000
C    -1.609000000    -0.229000000    -7.023000000
H    -1.049000000    -1.067000000    -7.431000000
C    -1.942000000    -0.259000000    -5.705000000
O    -1.603000000    -1.330000000    -4.883000000
C    -0.282000000    -1.634000000    -4.677000000
C     0.089000000    -2.954000000    -4.848000000
H    -0.665000000    -3.645000000    -5.216000000
C     1.343000000    -3.373000000    -4.641000000
O     1.684000000    -4.750000000    -4.879000000
C     2.409000000    -5.406000000    -3.949000000
C     3.709000000    -5.865000000    -4.227000000
H     4.209000000    -5.704000000    -5.178000000
C     4.360000000    -6.578000000    -3.191000000
H     5.395000000    -6.866000000    -3.357000000
C     3.678000000    -6.898000000    -2.027000000
H     4.243000000    -7.519000000    -1.338000000
C     2.401000000    -6.594000000    -1.825000000
C     1.742000000    -5.794000000    -2.781000000
H     0.751000000    -5.364000000    -2.658000000
O    -3.502000000    -4.509000000    -0.200000000
H    -2.612000000    -4.758000000     0.049000000
H    -3.387000000    -3.743000000    -0.763000000
O    -6.256000000    -2.622000000    -6.736000000
H    -6.049000000    -1.688000000    -6.702000000
H    -5.603000000    -3.033000000    -6.170000000
O    -5.856000000    -7.750000000    -3.784000000
H    -5.185000000    -8.234000000    -3.302000000
H    -5.898000000    -6.899000000    -3.348000000
O    -8.096000000    -3.618000000    -2.334000000
H    -8.755000000    -4.201000000    -1.956000000
H    -7.312000000    -4.162000000    -2.413000000
O    -5.650000000    -0.064000000    -4.143000000
H    -4.990000000    -0.166000000    -4.829000000
H    -5.198000000    -0.315000000    -3.337000000
O    -4.396000000    -2.923000000    -4.744000000
H    -3.862000000    -2.709000000    -3.979000000
H    -4.060000000    -3.768000000    -5.042000000
O    -8.654000000    -1.902000000    -5.015000000
H    -8.069000000    -2.011000000    -5.764000000
H    -8.358000000    -2.558000000    -4.383000000
O    -1.326000000    -7.763000000    -4.089000000
H    -1.102000000    -7.544000000    -4.994000000
H    -1.610000000    -6.933000000    -3.705000000
O    -8.283000000     0.615000000    -4.054000000
H    -7.327000000     0.582000000    -4.089000000
H    -8.567000000    -0.178000000    -4.509000000
O    -8.592000000     0.882000000    -1.063000000
H    -7.792000000     0.430000000    -0.794000000
H    -8.583000000     0.837000000    -2.019000000
O    -6.224000000    -5.927000000     0.733000000
H    -5.269000000    -5.984000000     0.697000000
H    -6.399000000    -5.056000000     1.088000000
O    -2.191000000    -5.146000000    -3.633000000
H    -2.886000000    -5.672000000    -3.240000000
H    -2.275000000    -4.287000000    -3.218000000
O    -5.618000000    -5.342000000    -2.424000000
H    -4.963000000    -5.633000000    -1.790000000
H    -5.269000000    -4.520000000    -2.769000000
O    -5.511000000    -3.338000000     1.430000000
H    -5.900000000    -2.856000000     0.700000000
H    -4.646000000    -3.598000000     1.113000000
O    -5.282000000    -5.339000000    -5.599000000
H    -6.209000000    -5.261000000    -5.822000000
H    -5.195000000    -6.223000000    -5.242000000
O    -8.575000000    -2.180000000     0.897000000
H    -8.346000000    -1.593000000     0.176000000
H    -9.391000000    -2.595000000     0.618000000
O    -6.674000000    -1.059000000    -1.130000000
H    -7.168000000    -1.766000000    -1.545000000
H    -5.825000000    -1.069000000    -1.573000000
O    -3.198000000    -7.385000000    -1.634000000
H    -2.966000000    -8.305000000    -1.758000000
H    -3.080000000    -7.231000000    -0.697000000
O    -2.642000000    -4.645000000    -6.367000000
H    -3.390000000    -5.242000000    -6.337000000
H    -2.317000000    -4.623000000    -5.467000000
