201
-1272.21077
C    -4.655000000     2.678000000     2.771000000
H    -4.491000000     3.685000000     2.397000000
C    -3.523000000     2.033000000     3.258000000
C    -3.658000000     0.724000000     3.694000000
H    -2.768000000     0.291000000     4.142000000
C    -2.087000000     2.533000000     2.954000000
O    -2.012000000     3.827000000     2.444000000
H    -1.588000000     1.881000000     2.222000000
O    -1.302000000     2.532000000     4.179000000
C     0.026000000     2.160000000     3.977000000
C     0.435000000     0.874000000     4.342000000
H    -0.264000000     0.130000000     4.718000000
C     1.768000000     0.510000000     4.158000000
O     2.110000000    -0.816000000     4.343000000
C     2.740000000     1.404000000     3.655000000
C     4.207000000     1.005000000     3.447000000
H     4.874000000     1.859000000     3.577000000
C     4.446000000     0.357000000     2.136000000
C     4.848000000     1.121000000     1.051000000
H     4.834000000     2.208000000     1.074000000
H     4.561000000     0.331000000     4.230000000
C     2.369000000     2.745000000     3.529000000
H     3.129000000     3.506000000     3.370000000
C     0.996000000     3.088000000     3.594000000
C     0.638000000     4.538000000     3.188000000
H     1.540000000     5.129000000     3.362000000
H    -0.105000000     4.946000000     3.876000000
C     0.150000000     4.559000000     1.751000000
C     1.028000000     4.947000000     0.743000000
H     2.025000000     5.276000000     1.026000000
C    -1.154000000     4.215000000     1.491000000
C    -1.690000000     4.390000000     0.232000000
H    -2.751000000     4.219000000     0.067000000
C    -0.791000000     4.699000000    -0.861000000
O    -1.245000000     4.357000000    -2.140000000
C    -0.733000000     3.116000000    -2.740000000
C    -1.945000000     2.506000000    -3.477000000
C    -1.764000000     1.592000000    -4.550000000
H    -0.778000000     1.661000000    -5.001000000
C    -3.202000000     2.509000000    -2.860000000
H    -3.327000000     3.001000000    -1.898000000
O     0.439000000     3.324000000    -3.646000000
H    -0.473000000     2.375000000    -1.971000000
C     0.580000000     4.926000000    -0.580000000
C     1.620000000     5.033000000    -1.644000000
H     2.410000000     5.646000000    -1.204000000
H     1.123000000     5.550000000    -2.468000000
C     2.252000000     3.713000000    -2.179000000
C     3.405000000     3.236000000    -1.692000000
H     3.935000000     3.762000000    -0.903000000
C     1.607000000     2.929000000    -3.136000000
C     2.105000000     1.719000000    -3.546000000
H     1.599000000     1.182000000    -4.344000000
C     3.212000000     1.217000000    -2.955000000
O     3.696000000    -0.032000000    -3.338000000
C     3.509000000    -1.112000000    -2.415000000
C     2.906000000    -2.373000000    -3.081000000
C     2.165000000    -2.181000000    -4.223000000
H     2.139000000    -1.220000000    -4.729000000
C     3.019000000    -3.626000000    -2.426000000
H     3.552000000    -3.800000000    -1.495000000
O     4.699000000    -1.391000000    -1.696000000
H     2.697000000    -0.810000000    -1.737000000
C     3.925000000     1.992000000    -2.015000000
C     5.220000000     1.588000000    -1.342000000
H     5.885000000     2.352000000    -0.935000000
H     5.837000000     1.073000000    -2.081000000
C     4.951000000     0.548000000    -0.206000000
C     4.811000000    -0.837000000    -0.403000000
C     4.469000000    -1.617000000     0.672000000
H     4.207000000    -2.660000000     0.516000000
C     4.244000000    -1.021000000     1.910000000
O     3.678000000    -1.870000000     2.854000000
C     2.227000000    -1.680000000     3.134000000
H     1.804000000    -1.131000000     2.279000000
C     1.467000000    -3.025000000     3.326000000
C     0.321000000    -3.176000000     4.028000000
H    -0.055000000    -2.287000000     4.527000000
C     2.003000000    -4.129000000     2.649000000
H     2.826000000    -4.067000000     1.941000000
C     1.387000000    -5.400000000     2.755000000
O     1.892000000    -6.545000000     2.130000000
C     0.264000000    -5.556000000     3.522000000
H    -0.277000000    -6.483000000     3.694000000
C    -0.313000000    -4.392000000     4.127000000
O    -1.508000000    -4.635000000     4.878000000
C    -2.316000000    -3.576000000     5.234000000
C    -3.304000000    -3.023000000     4.472000000
H    -3.480000000    -3.524000000     3.524000000
C    -2.161000000    -3.061000000     6.527000000
H    -1.434000000    -3.515000000     7.196000000
C    -2.823000000    -1.971000000     6.959000000
H    -2.803000000    -1.687000000     8.008000000
C    -3.702000000    -1.233000000     6.086000000
H    -4.281000000    -0.404000000     6.486000000
C    -3.918000000    -1.774000000     4.834000000
O    -4.897000000    -1.295000000     3.981000000
C    -4.882000000     0.102000000     3.560000000
C    -5.992000000     0.694000000     3.092000000
H    -6.934000000     0.153000000     3.060000000
C    -5.866000000     2.009000000     2.642000000
O    -6.823000000     2.642000000     1.808000000
C    -6.692000000     2.987000000     0.448000000
C    -6.082000000     2.208000000    -0.510000000
H    -5.886000000     1.188000000    -0.188000000
C    -7.132000000     4.265000000     0.128000000
H    -7.659000000     4.833000000     0.890000000
C    -7.006000000     4.769000000    -1.101000000
H    -7.513000000     5.691000000    -1.374000000
C    -6.462000000     3.904000000    -2.095000000
H    -6.306000000     4.260000000    -3.110000000
C    -5.942000000     2.667000000    -1.814000000
O    -5.478000000     1.825000000    -2.813000000
C    -4.245000000     1.762000000    -3.395000000
C    -4.063000000     0.953000000    -4.534000000
H    -4.859000000     0.285000000    -4.854000000
C    -2.814000000     0.943000000    -5.154000000
O    -2.625000000     0.125000000    -6.229000000
C    -1.386000000    -0.307000000    -6.602000000
C    -0.766000000    -1.362000000    -5.900000000
H    -1.289000000    -1.922000000    -5.129000000
C    -0.752000000     0.382000000    -7.689000000
H    -1.268000000     1.228000000    -8.136000000
C     0.507000000    -0.053000000    -8.095000000
H     0.900000000     0.421000000    -8.991000000
C     1.075000000    -1.221000000    -7.488000000
H     2.028000000    -1.641000000    -7.798000000
C     0.404000000    -1.877000000    -6.465000000
O     0.863000000    -3.105000000    -5.997000000
C     1.509000000    -3.257000000    -4.764000000
C     1.551000000    -4.478000000    -4.185000000
H     1.011000000    -5.217000000    -4.772000000
C     2.296000000    -4.724000000    -3.006000000
O     2.487000000    -6.010000000    -2.678000000
C     2.916000000    -6.382000000    -1.397000000
C     3.989000000    -7.282000000    -1.406000000
H     4.445000000    -7.600000000    -2.340000000
C     4.384000000    -7.831000000    -0.204000000
H     5.177000000    -8.568000000    -0.099000000
C     3.703000000    -7.581000000     0.969000000
H     3.803000000    -8.176000000     1.873000000
C     2.697000000    -6.624000000     0.971000000
C     2.322000000    -5.961000000    -0.214000000
H     1.363000000    -5.454000000    -0.275000000
O    -2.251000000    -5.898000000     0.611000000
H    -2.052000000    -6.679000000     1.127000000
H    -1.727000000    -5.997000000    -0.184000000
O    -4.863000000    -1.734000000    -7.495000000
H    -5.079000000    -2.084000000    -6.631000000
H    -4.841000000    -0.785000000    -7.370000000
O    -1.992000000    -4.338000000    -7.875000000
H    -1.087000000    -4.297000000    -7.567000000
H    -2.517000000    -4.130000000    -7.102000000
O    -1.950000000    -7.004000000    -5.157000000
H    -2.343000000    -6.203000000    -5.502000000
H    -1.247000000    -7.212000000    -5.773000000
O    -4.732000000    -4.847000000    -3.325000000
H    -4.179000000    -5.271000000    -2.669000000
H    -4.399000000    -3.951000000    -3.376000000
O    -7.332000000    -5.375000000    -2.362000000
H    -6.473000000    -5.127000000    -2.703000000
H    -7.858000000    -4.578000000    -2.436000000
O    -5.359000000    -2.344000000    -4.928000000
H    -4.739000000    -2.231000000    -4.207000000
H    -6.220000000    -2.291000000    -4.513000000
O    -2.961000000    -4.415000000    -5.445000000
H    -2.713000000    -4.328000000    -4.525000000
H    -3.626000000    -3.740000000    -5.580000000
O    -5.244000000    -6.737000000    -0.807000000
H    -5.775000000    -6.054000000    -1.218000000
H    -5.539000000    -7.549000000    -1.219000000
O    -8.012000000    -4.204000000    -5.665000000
H    -7.755000000    -3.487000000    -5.084000000
H    -8.765000000    -3.863000000    -6.147000000
O    -7.716000000    -2.268000000    -3.507000000
H    -8.514000000    -1.746000000    -3.597000000
H    -7.278000000    -1.905000000    -2.737000000
O    -0.821000000    -5.721000000    -1.706000000
H    -1.357000000    -5.113000000    -2.215000000
H    -0.790000000    -6.516000000    -2.238000000
O    -6.159000000    -1.552000000    -1.567000000
H    -5.956000000    -1.722000000    -0.647000000
H    -5.345000000    -1.746000000    -2.031000000
O    -2.694000000    -3.183000000     0.989000000
H    -1.978000000    -2.612000000     0.710000000
H    -2.397000000    -4.065000000     0.767000000
O    -4.849000000    -5.320000000     1.446000000
H    -4.892000000    -5.805000000     0.622000000
H    -3.932000000    -5.057000000     1.521000000
O    -5.282000000    -2.160000000     0.860000000
H    -4.366000000    -2.389000000     1.017000000
H    -5.749000000    -2.499000000     1.624000000
O    -8.076000000     0.883000000    -2.888000000
H    -7.920000000     0.309000000    -2.137000000
H    -7.209000000     1.217000000    -3.118000000
O    -5.800000000    -5.737000000    -5.756000000
H    -6.565000000    -5.164000000    -5.711000000
H    -5.281000000    -5.504000000    -4.986000000
O    -2.729000000    -7.871000000    -2.687000000
H    -2.390000000    -7.595000000    -3.539000000
H    -3.651000000    -8.068000000    -2.849000000
