201
-1232.33397
C    -2.572000000    -2.621000000    -3.630000000
H    -2.585000000    -1.836000000    -4.382000000
C    -3.208000000    -2.370000000    -2.440000000
C    -3.125000000    -3.341000000    -1.391000000
H    -3.549000000    -3.217000000    -0.398000000
C    -3.683000000    -0.996000000    -2.082000000
O    -4.025000000    -0.149000000    -3.211000000
H    -2.781000000    -0.628000000    -1.572000000
O    -4.754000000    -1.067000000    -1.125000000
C    -4.728000000    -0.151000000     0.003000000
C    -4.293000000    -0.619000000     1.256000000
H    -4.346000000    -1.680000000     1.484000000
C    -3.870000000     0.245000000     2.296000000
O    -3.462000000    -0.437000000     3.447000000
C    -3.772000000     1.627000000     2.141000000
C    -3.642000000     2.583000000     3.286000000
H    -4.154000000     3.548000000     3.269000000
C    -2.109000000     2.799000000     3.411000000
C    -1.517000000     3.964000000     2.934000000
H    -2.138000000     4.706000000     2.438000000
H    -4.013000000     2.167000000     4.225000000
C    -4.346000000     2.113000000     0.908000000
H    -4.522000000     3.168000000     0.715000000
C    -4.805000000     1.272000000    -0.099000000
C    -5.174000000     1.879000000    -1.430000000
H    -5.595000000     2.859000000    -1.199000000
H    -5.893000000     1.222000000    -1.925000000
C    -3.905000000     2.101000000    -2.250000000
C    -3.228000000     3.309000000    -2.140000000
H    -3.664000000     4.139000000    -1.590000000
C    -3.434000000     1.124000000    -3.143000000
C    -2.260000000     1.306000000    -3.816000000
H    -1.960000000     0.454000000    -4.422000000
C    -1.499000000     2.381000000    -3.540000000
O    -0.300000000     2.586000000    -4.195000000
C     0.900000000     2.276000000    -3.447000000
C     1.805000000     1.412000000    -4.262000000
C     3.158000000     1.389000000    -3.937000000
H     3.650000000     2.023000000    -3.204000000
C     1.302000000     0.591000000    -5.257000000
H     0.271000000     0.766000000    -5.555000000
O     1.551000000     3.491000000    -2.927000000
H     0.562000000     1.767000000    -2.532000000
C    -1.938000000     3.433000000    -2.714000000
C    -1.139000000     4.714000000    -2.516000000
H    -1.721000000     5.563000000    -2.152000000
H    -0.666000000     5.030000000    -3.449000000
C    -0.086000000     4.604000000    -1.400000000
C    -0.300000000     5.169000000    -0.131000000
H    -1.313000000     5.376000000     0.206000000
C     1.165000000     3.968000000    -1.666000000
C     2.127000000     3.931000000    -0.729000000
H     3.079000000     3.492000000    -1.018000000
C     1.951000000     4.478000000     0.561000000
O     2.864000000     4.044000000     1.468000000
C     2.605000000     2.897000000     2.241000000
C     3.731000000     1.877000000     2.352000000
C     4.547000000     1.658000000     1.273000000
H     4.423000000     2.248000000     0.369000000
C     3.772000000     0.954000000     3.422000000
H     2.947000000     1.009000000     4.127000000
O     2.077000000     3.280000000     3.475000000
H     1.841000000     2.320000000     1.699000000
C     0.734000000     5.088000000     0.849000000
C     0.385000000     5.325000000     2.320000000
H    -0.354000000     6.129000000     2.347000000
H     1.246000000     5.751000000     2.840000000
C    -0.132000000     4.124000000     2.999000000
C     0.684000000     3.145000000     3.566000000
C     0.108000000     1.991000000     4.001000000
H     0.738000000     1.169000000     4.332000000
C    -1.262000000     1.795000000     4.007000000
O    -1.687000000     0.599000000     4.594000000
C    -2.073000000    -0.517000000     3.725000000
H    -1.576000000    -0.393000000     2.752000000
C    -1.642000000    -1.856000000     4.275000000
C    -2.385000000    -3.036000000     4.039000000
H    -3.313000000    -3.041000000     3.473000000
C    -0.369000000    -1.957000000     4.867000000
H     0.133000000    -1.029000000     5.128000000
C     0.031000000    -3.203000000     5.328000000
O     1.146000000    -3.389000000     6.160000000
C    -0.657000000    -4.344000000     5.040000000
H    -0.322000000    -5.367000000     5.195000000
C    -1.876000000    -4.313000000     4.399000000
O    -2.578000000    -5.424000000     4.118000000
C    -3.042000000    -5.649000000     2.919000000
C    -2.228000000    -5.466000000     1.774000000
H    -1.226000000    -5.052000000     1.850000000
C    -4.303000000    -6.283000000     2.866000000
H    -4.862000000    -6.532000000     3.765000000
C    -4.806000000    -6.638000000     1.598000000
H    -5.795000000    -7.080000000     1.515000000
C    -4.068000000    -6.319000000     0.477000000
H    -4.419000000    -6.565000000    -0.523000000
C    -2.778000000    -5.778000000     0.543000000
O    -2.103000000    -5.400000000    -0.524000000
C    -2.405000000    -4.538000000    -1.525000000
C    -1.825000000    -4.813000000    -2.725000000
H    -1.293000000    -5.759000000    -2.789000000
C    -1.908000000    -3.917000000    -3.805000000
O    -1.251000000    -4.231000000    -4.951000000
C    -0.992000000    -3.418000000    -6.027000000
C     0.266000000    -2.701000000    -5.994000000
H     0.923000000    -2.678000000    -5.128000000
C    -1.844000000    -3.229000000    -7.102000000
H    -2.797000000    -3.752000000    -7.105000000
C    -1.556000000    -2.278000000    -8.091000000
H    -2.330000000    -1.949000000    -8.780000000
C    -0.344000000    -1.658000000    -8.099000000
H    -0.138000000    -0.835000000    -8.778000000
C     0.612000000    -1.852000000    -7.038000000
O     1.668000000    -0.984000000    -7.055000000
C     2.165000000    -0.231000000    -6.014000000
C     3.507000000    -0.250000000    -5.717000000
H     4.196000000    -0.875000000    -6.279000000
C     4.015000000     0.503000000    -4.682000000
O     5.305000000     0.287000000    -4.334000000
C     5.904000000     0.843000000    -3.212000000
C     5.866000000     0.252000000    -1.973000000
H     5.336000000    -0.695000000    -1.901000000
C     6.701000000     2.021000000    -3.389000000
H     6.756000000     2.572000000    -4.324000000
C     7.114000000     2.751000000    -2.218000000
H     7.596000000     3.724000000    -2.259000000
C     6.948000000     2.205000000    -0.928000000
H     7.458000000     2.579000000    -0.045000000
C     6.405000000     0.904000000    -0.876000000
O     6.364000000     0.318000000     0.336000000
C     5.521000000     0.620000000     1.323000000
C     5.673000000    -0.114000000     2.444000000
H     6.373000000    -0.943000000     2.509000000
C     4.797000000     0.042000000     3.482000000
O     4.807000000    -1.020000000     4.381000000
C     3.953000000    -1.255000000     5.371000000
C     4.006000000    -0.512000000     6.520000000
H     4.876000000     0.139000000     6.493000000
C     3.175000000    -0.742000000     7.586000000
H     3.245000000    -0.054000000     8.425000000
C     2.153000000    -1.709000000     7.477000000
H     1.429000000    -1.958000000     8.249000000
C     2.129000000    -2.498000000     6.307000000
C     2.988000000    -2.235000000     5.250000000
H     2.831000000    -2.760000000     4.311000000
O     4.556000000    -7.909000000    -2.148000000
H     4.358000000    -7.499000000    -1.306000000
H     3.785000000    -8.442000000    -2.342000000
O     2.966000000    -7.902000000     3.880000000
H     3.814000000    -7.467000000     3.798000000
H     2.955000000    -8.239000000     4.776000000
O    -1.780000000    -8.247000000    -3.291000000
H    -1.790000000    -9.124000000    -2.908000000
H    -1.215000000    -7.738000000    -2.709000000
O     0.099000000    -7.631000000    -1.326000000
H     0.504000000    -6.825000000    -1.005000000
H     0.015000000    -8.183000000    -0.549000000
O     3.807000000    -3.420000000    -4.243000000
H     3.642000000    -3.635000000    -5.161000000
H     3.153000000    -3.923000000    -3.757000000
O     5.000000000    -7.677000000     0.674000000
H     5.195000000    -7.518000000     1.597000000
H     4.047000000    -7.767000000     0.643000000
O     5.671000000    -3.750000000     0.596000000
H     6.222000000    -4.105000000    -0.102000000
H     4.989000000    -3.260000000     0.138000000
O    -1.353000000    -8.219000000     1.517000000
H    -1.972000000    -7.494000000     1.437000000
H    -0.593000000    -7.838000000     1.957000000
O     7.336000000    -4.981000000     2.647000000
H     6.857000000    -4.813000000     1.835000000
H     7.296000000    -4.152000000     3.124000000
O     2.227000000    -8.030000000     0.954000000
H     2.255000000    -7.673000000     1.841000000
H     1.872000000    -7.319000000     0.420000000
O     3.681000000    -2.434000000    -1.088000000
H     3.904000000    -2.888000000    -1.901000000
H     2.749000000    -2.233000000    -1.173000000
O     2.226000000    -6.899000000    -4.890000000
H     1.724000000    -6.426000000    -5.554000000
H     2.373000000    -6.255000000    -4.197000000
O     0.575000000    -6.876000000     3.054000000
H     1.272000000    -7.059000000     3.684000000
H     0.895000000    -6.126000000     2.554000000
O     2.086000000    -9.092000000    -2.582000000
H     1.472000000    -8.359000000    -2.539000000
H     1.646000000    -9.742000000    -3.129000000
O     7.545000000    -6.464000000    -0.592000000
H     6.607000000    -6.641000000    -0.670000000
H     7.704000000    -5.742000000    -1.200000000
O     1.536000000    -4.779000000    -3.142000000
H     1.257000000    -5.129000000    -2.296000000
H     0.724000000    -4.673000000    -3.637000000
O     1.949000000   -10.596000000     0.464000000
H     1.966000000    -9.640000000     0.507000000
H     2.024000000   -10.795000000    -0.469000000
O     4.666000000    -5.811000000     5.295000000
H     3.815000000    -5.880000000     5.728000000
H     4.454000000    -5.657000000     4.374000000
O     3.825000000    -4.769000000     2.787000000
H     4.358000000    -4.314000000     2.135000000
H     3.073000000    -5.098000000     2.294000000
