201
-1236.73060
C    -4.161000000     2.121000000     2.656000000
H    -3.845000000     3.081000000     2.256000000
C    -3.217000000     1.255000000     3.280000000
C    -3.596000000    -0.049000000     3.534000000
H    -2.855000000    -0.711000000     3.974000000
C    -1.730000000     1.620000000     3.532000000
O    -1.555000000     3.035000000     3.562000000
H    -1.129000000     1.167000000     2.730000000
O    -1.137000000     1.032000000     4.748000000
C     0.114000000     0.612000000     4.743000000
C     0.296000000    -0.766000000     4.671000000
H    -0.531000000    -1.455000000     4.819000000
C     1.552000000    -1.295000000     4.313000000
O     1.628000000    -2.600000000     3.989000000
C     2.586000000    -0.436000000     4.042000000
C     3.997000000    -1.001000000     3.666000000
H     4.668000000    -0.198000000     3.981000000
C     4.219000000    -1.116000000     2.138000000
C     4.762000000    -0.036000000     1.440000000
H     5.089000000     0.864000000     1.955000000
H     4.248000000    -1.898000000     4.236000000
C     2.417000000     0.940000000     4.229000000
H     3.173000000     1.682000000     3.985000000
C     1.142000000     1.464000000     4.402000000
C     1.107000000     2.975000000     4.508000000
H     2.023000000     3.424000000     4.899000000
H     0.450000000     3.312000000     5.313000000
C     0.690000000     3.566000000     3.146000000
C     1.707000000     4.027000000     2.337000000
H     2.732000000     3.939000000     2.689000000
C    -0.653000000     3.605000000     2.729000000
C    -1.012000000     4.135000000     1.535000000
H    -2.043000000     4.099000000     1.193000000
C     0.051000000     4.572000000     0.740000000
O    -0.290000000     4.904000000    -0.541000000
C    -0.154000000     3.882000000    -1.585000000
C    -1.494000000     3.795000000    -2.352000000
C    -1.430000000     3.155000000    -3.616000000
H    -0.458000000     2.740000000    -3.867000000
C    -2.726000000     4.205000000    -1.931000000
H    -2.751000000     4.642000000    -0.936000000
O     0.951000000     4.122000000    -2.457000000
H    -0.006000000     2.908000000    -1.096000000
C     1.371000000     4.521000000     1.023000000
C     2.416000000     4.983000000     0.035000000
H     3.234000000     5.234000000     0.713000000
H     2.145000000     5.905000000    -0.483000000
C     2.861000000     3.851000000    -0.960000000
C     3.940000000     3.092000000    -0.680000000
H     4.520000000     3.231000000     0.229000000
C     2.131000000     3.553000000    -2.120000000
C     2.513000000     2.496000000    -2.904000000
H     1.837000000     2.271000000    -3.725000000
C     3.624000000     1.711000000    -2.575000000
O     3.730000000     0.552000000    -3.326000000
C     3.219000000    -0.647000000    -2.702000000
C     2.596000000    -1.605000000    -3.705000000
C     1.903000000    -1.065000000    -4.809000000
H     1.891000000     0.016000000    -4.921000000
C     2.673000000    -2.939000000    -3.600000000
H     3.195000000    -3.467000000    -2.806000000
O     4.294000000    -1.298000000    -2.029000000
H     2.444000000    -0.369000000    -1.973000000
C     4.341000000     1.973000000    -1.379000000
C     5.418000000     1.090000000    -0.797000000
H     6.137000000     1.639000000    -0.185000000
H     6.087000000     0.704000000    -1.569000000
C     4.854000000    -0.072000000     0.026000000
C     4.314000000    -1.187000000    -0.611000000
C     3.707000000    -2.251000000     0.090000000
H     3.229000000    -3.070000000    -0.441000000
C     3.769000000    -2.259000000     1.458000000
O     3.063000000    -3.177000000     2.219000000
C     1.682000000    -2.925000000     2.577000000
H     1.254000000    -2.061000000     2.048000000
C     0.774000000    -4.050000000     2.172000000
C    -0.516000000    -4.219000000     2.731000000
H    -0.925000000    -3.468000000     3.402000000
C     1.322000000    -4.950000000     1.292000000
H     2.261000000    -4.703000000     0.805000000
C     0.492000000    -6.020000000     0.810000000
O     0.878000000    -6.953000000    -0.151000000
C    -0.784000000    -6.123000000     1.299000000
H    -1.433000000    -6.891000000     0.884000000
C    -1.265000000    -5.316000000     2.329000000
O    -2.645000000    -5.454000000     2.576000000
C    -3.217000000    -4.684000000     3.564000000
C    -3.974000000    -3.565000000     3.211000000
H    -4.212000000    -3.395000000     2.164000000
C    -2.844000000    -4.802000000     4.901000000
H    -2.178000000    -5.606000000     5.205000000
C    -3.441000000    -3.997000000     5.878000000
H    -3.171000000    -4.245000000     6.902000000
C    -4.262000000    -2.912000000     5.563000000
H    -4.725000000    -2.166000000     6.204000000
C    -4.516000000    -2.726000000     4.181000000
O    -5.348000000    -1.740000000     3.663000000
C    -4.940000000    -0.435000000     3.419000000
C    -5.777000000     0.433000000     2.770000000
H    -6.784000000     0.037000000     2.664000000
C    -5.485000000     1.716000000     2.398000000
O    -6.408000000     2.519000000     1.845000000
C    -6.139000000     3.683000000     1.098000000
C    -6.034000000     3.582000000    -0.270000000
H    -6.376000000     2.699000000    -0.804000000
C    -5.784000000     4.898000000     1.697000000
H    -5.901000000     4.957000000     2.776000000
C    -5.460000000     6.013000000     0.960000000
H    -5.280000000     6.997000000     1.386000000
C    -5.363000000     5.907000000    -0.450000000
H    -4.979000000     6.765000000    -0.994000000
C    -5.567000000     4.684000000    -1.009000000
O    -5.167000000     4.489000000    -2.290000000
C    -3.937000000     3.954000000    -2.634000000
C    -3.825000000     3.270000000    -3.818000000
H    -4.753000000     3.011000000    -4.323000000
C    -2.595000000     2.880000000    -4.343000000
O    -2.585000000     2.223000000    -5.575000000
C    -1.485000000     1.654000000    -6.193000000
C    -1.161000000     0.305000000    -6.123000000
H    -1.645000000    -0.349000000    -5.402000000
C    -0.773000000     2.595000000    -6.985000000
H    -1.109000000     3.628000000    -6.962000000
C     0.391000000     2.166000000    -7.626000000
H     1.022000000     2.876000000    -8.154000000
C     0.777000000     0.782000000    -7.513000000
H     1.670000000     0.416000000    -8.013000000
C     0.006000000    -0.147000000    -6.740000000
O     0.377000000    -1.468000000    -6.612000000
C     1.249000000    -1.947000000    -5.677000000
C     1.438000000    -3.294000000    -5.618000000
H     0.844000000    -3.959000000    -6.240000000
C     2.085000000    -3.783000000    -4.493000000
O     2.152000000    -5.156000000    -4.333000000
C     2.501000000    -5.862000000    -3.190000000
C     3.640000000    -6.712000000    -3.224000000
H     4.312000000    -6.738000000    -4.077000000
C     3.941000000    -7.495000000    -2.071000000
H     4.883000000    -8.036000000    -2.016000000
C     3.094000000    -7.401000000    -0.992000000
H     3.345000000    -7.979000000    -0.106000000
C     1.855000000    -6.778000000    -1.039000000
C     1.566000000    -5.992000000    -2.162000000
H     0.706000000    -5.328000000    -2.175000000
O    -8.204000000    -5.678000000    -0.513000000
H    -7.456000000    -5.949000000     0.019000000
H    -8.569000000    -4.925000000    -0.048000000
O    -4.619000000    -0.898000000    -5.745000000
H    -4.111000000    -1.632000000    -6.089000000
H    -4.569000000    -0.996000000    -4.794000000
O    -3.152000000    -3.378000000    -5.698000000
H    -3.527000000    -4.227000000    -5.465000000
H    -2.237000000    -3.437000000    -5.426000000
O    -4.141000000    -5.908000000    -5.582000000
H    -4.353000000    -6.178000000    -6.476000000
H    -4.892000000    -6.192000000    -5.062000000
O    -1.781000000    -5.819000000    -4.190000000
H    -2.645000000    -6.023000000    -4.548000000
H    -1.809000000    -4.878000000    -4.019000000
O    -5.452000000    -4.327000000    -2.567000000
H    -5.983000000    -3.725000000    -2.045000000
H    -4.560000000    -4.202000000    -2.243000000
O    -6.354000000    -6.707000000    -3.908000000
H    -6.214000000    -6.008000000    -3.269000000
H    -5.813000000    -7.431000000    -3.593000000
O    -6.910000000    -3.807000000     1.272000000
H    -7.803000000    -3.641000000     0.972000000
H    -6.396000000    -3.089000000     0.903000000
O    -4.175000000    -8.214000000    -2.139000000
H    -3.434000000    -8.814000000    -2.228000000
H    -3.816000000    -7.457000000    -1.675000000
O    -1.655000000    -3.379000000    -3.385000000
H    -2.396000000    -3.380000000    -2.780000000
H    -0.995000000    -2.835000000    -2.955000000
O    -4.853000000    -0.250000000    -2.985000000
H    -3.971000000     0.117000000    -2.929000000
H    -4.877000000    -0.921000000    -2.302000000
O    -8.141000000    -1.713000000    -2.609000000
H    -8.835000000    -1.083000000    -2.414000000
H    -8.542000000    -2.330000000    -3.221000000
O    -8.897000000    -0.804000000     1.857000000
H    -8.712000000    -1.586000000     2.378000000
H    -8.234000000    -0.814000000     1.167000000
O    -7.031000000     1.174000000    -3.702000000
H    -6.354000000     0.658000000    -3.264000000
H    -7.080000000     0.805000000    -4.584000000
O    -3.024000000    -5.904000000    -1.341000000
H    -2.870000000    -4.983000000    -1.127000000
H    -2.431000000    -6.082000000    -2.071000000
O    -6.442000000    -5.672000000     3.329000000
H    -6.897000000    -5.267000000     2.591000000
H    -5.549000000    -5.808000000     3.015000000
O    -6.988000000    -1.037000000    -0.112000000
H    -7.372000000    -1.196000000    -0.974000000
H    -6.054000000    -1.214000000    -0.230000000
O    -6.928000000    -4.134000000    -5.243000000
H    -7.857000000    -4.073000000    -5.020000000
H    -6.479000000    -4.145000000    -4.397000000
O    -5.319000000    -5.905000000     0.349000000
H    -5.782000000    -5.142000000     0.002000000
H    -4.462000000    -5.879000000    -0.076000000
