201
-1224.22212
C    -2.406000000    -2.353000000    -3.518000000
H    -1.981000000    -1.525000000    -4.080000000
C    -3.341000000    -2.265000000    -2.496000000
C    -3.902000000    -3.379000000    -1.810000000
H    -4.581000000    -3.345000000    -0.962000000
C    -3.681000000    -0.876000000    -1.942000000
O    -3.881000000     0.030000000    -3.028000000
H    -2.815000000    -0.659000000    -1.299000000
O    -4.854000000    -0.938000000    -1.086000000
C    -4.886000000    -0.165000000    -0.046000000
C    -4.581000000    -0.790000000     1.142000000
H    -4.555000000    -1.874000000     1.217000000
C    -4.155000000    -0.017000000     2.197000000
O    -3.706000000    -0.707000000     3.253000000
C    -4.153000000     1.328000000     2.171000000
C    -3.786000000     2.198000000     3.394000000
H    -4.331000000     3.144000000     3.432000000
C    -2.302000000     2.359000000     3.523000000
C    -1.730000000     3.607000000     3.127000000
H    -2.381000000     4.284000000     2.580000000
H    -4.218000000     1.766000000     4.299000000
C    -4.518000000     2.078000000     1.067000000
H    -4.488000000     3.165000000     1.076000000
C    -4.806000000     1.219000000    -0.054000000
C    -5.057000000     1.966000000    -1.358000000
H    -5.389000000     2.967000000    -1.074000000
H    -5.724000000     1.459000000    -2.058000000
C    -3.719000000     2.193000000    -2.113000000
C    -3.035000000     3.370000000    -1.916000000
H    -3.552000000     4.184000000    -1.414000000
C    -3.192000000     1.189000000    -2.940000000
C    -2.006000000     1.346000000    -3.607000000
H    -1.640000000     0.658000000    -4.365000000
C    -1.313000000     2.520000000    -3.352000000
O    -0.016000000     2.593000000    -3.886000000
C     1.205000000     2.522000000    -3.048000000
C     2.295000000     1.663000000    -3.762000000
C     3.690000000     1.862000000    -3.490000000
H     3.853000000     2.590000000    -2.699000000
C     1.998000000     0.848000000    -4.878000000
H     0.986000000     0.758000000    -5.262000000
O     1.759000000     3.857000000    -2.645000000
H     1.065000000     1.890000000    -2.159000000
C    -1.807000000     3.553000000    -2.530000000
C    -1.004000000     4.782000000    -2.265000000
H    -1.848000000     5.407000000    -1.968000000
H    -0.619000000     5.229000000    -3.185000000
C     0.073000000     4.801000000    -1.184000000
C    -0.298000000     5.057000000     0.120000000
H    -1.203000000     5.577000000     0.425000000
C     1.354000000     4.282000000    -1.466000000
C     2.238000000     4.076000000    -0.458000000
H     3.219000000     3.653000000    -0.661000000
C     1.893000000     4.296000000     0.836000000
O     2.829000000     3.884000000     1.770000000
C     2.505000000     2.656000000     2.449000000
C     3.769000000     1.757000000     2.521000000
C     4.915000000     1.997000000     1.743000000
H     4.973000000     2.860000000     1.084000000
C     3.737000000     0.608000000     3.305000000
H     2.901000000     0.367000000     3.957000000
O     1.836000000     2.880000000     3.708000000
H     1.780000000     2.101000000     1.835000000
C     0.635000000     4.820000000     1.141000000
C     0.290000000     5.070000000     2.600000000
H    -0.369000000     5.932000000     2.716000000
H     1.225000000     5.347000000     3.092000000
C    -0.329000000     3.826000000     3.264000000
C     0.455000000     2.746000000     3.688000000
C    -0.202000000     1.648000000     4.206000000
H     0.520000000     0.913000000     4.555000000
C    -1.532000000     1.440000000     4.177000000
O    -1.942000000     0.160000000     4.547000000
C    -2.283000000    -0.782000000     3.473000000
H    -1.786000000    -0.409000000     2.566000000
C    -1.897000000    -2.249000000     3.848000000
C    -2.678000000    -3.330000000     3.412000000
H    -3.697000000    -3.214000000     3.050000000
C    -0.634000000    -2.551000000     4.457000000
H    -0.059000000    -1.688000000     4.783000000
C    -0.240000000    -3.870000000     4.621000000
O     0.919000000    -4.192000000     5.409000000
C    -1.065000000    -4.893000000     4.054000000
H    -0.643000000    -5.894000000     4.034000000
C    -2.282000000    -4.644000000     3.472000000
O    -3.082000000    -5.730000000     3.127000000
C    -3.847000000    -5.948000000     2.067000000
C    -3.352000000    -5.718000000     0.752000000
H    -2.484000000    -5.073000000     0.638000000
C    -5.110000000    -6.513000000     2.272000000
H    -5.327000000    -6.692000000     3.322000000
C    -5.893000000    -6.935000000     1.156000000
H    -6.895000000    -7.338000000     1.283000000
C    -5.355000000    -6.710000000    -0.158000000
H    -5.922000000    -7.131000000    -0.985000000
C    -4.175000000    -6.042000000    -0.289000000
O    -3.831000000    -5.793000000    -1.614000000
C    -3.360000000    -4.676000000    -2.191000000
C    -2.402000000    -4.774000000    -3.199000000
H    -2.047000000    -5.729000000    -3.579000000
C    -1.932000000    -3.618000000    -3.856000000
O    -0.925000000    -3.847000000    -4.781000000
C    -0.514000000    -2.935000000    -5.737000000
C     0.757000000    -2.394000000    -5.588000000
H     1.347000000    -2.732000000    -4.739000000
C    -1.299000000    -2.539000000    -6.837000000
H    -2.337000000    -2.848000000    -6.939000000
C    -0.755000000    -1.623000000    -7.805000000
H    -1.360000000    -1.336000000    -8.662000000
C     0.452000000    -0.984000000    -7.530000000
H     0.878000000    -0.189000000    -8.136000000
C     1.253000000    -1.443000000    -6.509000000
O     2.549000000    -0.913000000    -6.367000000
C     2.964000000     0.096000000    -5.501000000
C     4.260000000     0.191000000    -5.136000000
H     5.006000000    -0.406000000    -5.654000000
C     4.626000000     1.138000000    -4.201000000
O     5.932000000     1.286000000    -3.868000000
C     6.466000000     1.965000000    -2.686000000
C     6.391000000     1.333000000    -1.450000000
H     5.735000000     0.476000000    -1.317000000
C     7.075000000     3.201000000    -2.820000000
H     7.139000000     3.695000000    -3.787000000
C     7.729000000     3.802000000    -1.754000000
H     8.224000000     4.749000000    -1.950000000
C     7.643000000     3.176000000    -0.532000000
H     8.054000000     3.632000000     0.365000000
C     7.017000000     1.913000000    -0.366000000
O     7.040000000     1.272000000     0.827000000
C     5.973000000     1.090000000     1.670000000
C     5.852000000    -0.113000000     2.331000000
H     6.579000000    -0.908000000     2.186000000
C     4.772000000    -0.377000000     3.212000000
O     4.689000000    -1.645000000     3.715000000
C     3.903000000    -2.061000000     4.821000000
C     4.081000000    -1.497000000     6.029000000
H     4.904000000    -0.867000000     6.359000000
C     3.075000000    -1.659000000     6.989000000
H     3.192000000    -1.162000000     7.948000000
C     2.075000000    -2.610000000     6.784000000
H     1.319000000    -2.743000000     7.553000000
C     1.951000000    -3.244000000     5.565000000
C     2.850000000    -2.917000000     4.598000000
H     2.630000000    -3.327000000     3.616000000
O    -2.478000000    -8.927000000    -0.961000000
H    -1.694000000    -8.395000000    -0.828000000
H    -2.774000000    -9.143000000    -0.076000000
O     5.910000000    -5.400000000    -1.425000000
H     6.121000000    -4.864000000    -2.189000000
H     5.561000000    -4.778000000    -0.786000000
O     2.969000000    -7.360000000     4.813000000
H     3.513000000    -7.344000000     5.600000000
H     2.404000000    -8.124000000     4.926000000
O     4.605000000    -7.594000000     2.646000000
H     4.544000000    -6.732000000     2.235000000
H     4.161000000    -7.489000000     3.488000000
O    -0.313000000    -8.138000000     0.423000000
H    -0.684000000    -7.920000000     1.278000000
H     0.544000000    -7.711000000     0.418000000
O     5.783000000    -4.524000000    -4.753000000
H     4.904000000    -4.390000000    -5.108000000
H     5.947000000    -5.460000000    -4.865000000
O     6.120000000    -3.032000000     0.483000000
H     6.973000000    -2.739000000     0.162000000
H     5.487000000    -2.573000000    -0.069000000
O     6.478000000    -2.237000000    -2.854000000
H     6.233000000    -2.821000000    -3.572000000
H     5.644000000    -1.922000000    -2.506000000
O     3.402000000    -6.904000000    -1.003000000
H     3.010000000    -6.135000000    -0.591000000
H     4.256000000    -6.603000000    -1.312000000
O     4.045000000    -2.016000000    -1.570000000
H     3.595000000    -2.771000000    -1.190000000
H     3.347000000    -1.496000000    -1.968000000
O     3.436000000    -4.234000000    -6.035000000
H     3.155000000    -3.319000000    -6.018000000
H     2.949000000    -4.620000000    -6.763000000
O     0.298000000    -6.505000000    -5.735000000
H     0.043000000    -6.127000000    -6.577000000
H     0.683000000    -5.775000000    -5.251000000
O     1.444000000    -6.799000000     2.213000000
H     1.944000000    -7.100000000     2.971000000
H     1.827000000    -5.949000000     1.996000000
O     1.693000000    -8.086000000    -3.625000000
H     1.908000000    -7.612000000    -2.821000000
H     1.139000000    -7.481000000    -4.118000000
O     7.629000000    -7.595000000    -1.321000000
H     7.118000000    -6.794000000    -1.438000000
H     7.165000000    -8.077000000    -0.636000000
O     2.027000000    -4.983000000    -3.545000000
H     1.950000000    -4.786000000    -2.611000000
H     2.812000000    -4.511000000    -3.825000000
O     3.093000000    -9.363000000     0.307000000
H     2.991000000    -8.423000000     0.158000000
H     2.905000000    -9.762000000    -0.543000000
O     5.154000000    -5.018000000     5.034000000
H     4.397000000    -5.169000000     5.601000000
H     4.781000000    -4.919000000     4.158000000
O     4.624000000    -4.631000000     2.104000000
H     5.067000000    -3.821000000     1.853000000
H     3.753000000    -4.560000000     1.713000000
