201
-1232.64544
C    -4.413000000     3.165000000     2.044000000
H    -4.006000000     4.104000000     1.677000000
C    -3.565000000     2.363000000     2.822000000
C    -4.060000000     1.202000000     3.458000000
H    -3.467000000     0.462000000     3.989000000
C    -2.069000000     2.633000000     2.821000000
O    -1.780000000     3.966000000     2.561000000
H    -1.583000000     1.898000000     2.163000000
O    -1.536000000     2.436000000     4.157000000
C    -0.301000000     1.870000000     4.164000000
C    -0.194000000     0.481000000     4.317000000
H    -1.031000000    -0.179000000     4.532000000
C     1.086000000    -0.109000000     4.349000000
O     1.141000000    -1.488000000     4.475000000
C     2.233000000     0.663000000     4.112000000
C     3.617000000     0.046000000     4.131000000
H     4.363000000     0.693000000     4.597000000
C     4.103000000    -0.529000000     2.788000000
C     4.773000000     0.259000000     1.818000000
H     5.155000000     1.204000000     2.196000000
H     3.523000000    -0.787000000     4.832000000
C     2.086000000     2.039000000     3.830000000
H     2.988000000     2.607000000     3.620000000
C     0.847000000     2.644000000     3.948000000
C     0.839000000     4.113000000     3.660000000
H     1.796000000     4.597000000     3.867000000
H     0.152000000     4.667000000     4.303000000
C     0.551000000     4.404000000     2.176000000
C     1.560000000     4.726000000     1.270000000
H     2.592000000     4.886000000     1.569000000
C    -0.782000000     4.305000000     1.663000000
C    -1.055000000     4.360000000     0.287000000
H    -2.054000000     4.430000000    -0.136000000
C    -0.009000000     4.498000000    -0.585000000
O    -0.338000000     4.450000000    -1.934000000
C    -0.117000000     3.204000000    -2.601000000
C    -1.332000000     2.905000000    -3.540000000
C    -1.157000000     2.047000000    -4.611000000
H    -0.197000000     1.596000000    -4.849000000
C    -2.589000000     3.234000000    -3.033000000
H    -2.620000000     3.779000000    -2.093000000
O     1.119000000     3.214000000    -3.333000000
H     0.011000000     2.483000000    -1.780000000
C     1.290000000     4.651000000    -0.148000000
C     2.474000000     4.731000000    -1.149000000
H     3.339000000     5.155000000    -0.634000000
H     2.226000000     5.470000000    -1.913000000
C     2.870000000     3.308000000    -1.588000000
C     3.892000000     2.650000000    -0.825000000
H     4.324000000     3.107000000     0.062000000
C     2.277000000     2.752000000    -2.681000000
C     2.845000000     1.528000000    -3.039000000
H     2.428000000     1.025000000    -3.907000000
C     3.853000000     0.879000000    -2.345000000
O     4.107000000    -0.336000000    -2.778000000
C     3.649000000    -1.397000000    -1.934000000
C     3.000000000    -2.516000000    -2.713000000
C     2.188000000    -2.207000000    -3.801000000
H     2.011000000    -1.205000000    -4.185000000
C     3.257000000    -3.880000000    -2.397000000
H     3.920000000    -4.140000000    -1.577000000
O     4.804000000    -1.790000000    -1.113000000
H     2.895000000    -0.953000000    -1.268000000
C     4.428000000     1.449000000    -1.251000000
C     5.598000000     0.827000000    -0.523000000
H     6.194000000     1.601000000    -0.034000000
H     6.287000000     0.325000000    -1.206000000
C     5.049000000    -0.133000000     0.546000000
C     4.675000000    -1.433000000     0.239000000
C     4.171000000    -2.288000000     1.148000000
H     3.800000000    -3.251000000     0.807000000
C     3.803000000    -1.834000000     2.415000000
O     2.945000000    -2.584000000     3.203000000
C     1.541000000    -2.178000000     3.216000000
H     1.454000000    -1.400000000     2.442000000
C     0.582000000    -3.257000000     2.820000000
C    -0.853000000    -3.128000000     3.033000000
H    -1.226000000    -2.240000000     3.538000000
C     1.048000000    -4.424000000     2.152000000
H     2.118000000    -4.605000000     2.224000000
C     0.197000000    -5.415000000     1.724000000
O     0.723000000    -6.650000000     1.432000000
C    -1.190000000    -5.277000000     2.075000000
H    -1.874000000    -6.064000000     1.767000000
C    -1.717000000    -4.198000000     2.770000000
O    -3.103000000    -4.150000000     3.024000000
C    -3.665000000    -3.264000000     3.925000000
C    -4.464000000    -2.197000000     3.441000000
H    -4.683000000    -2.059000000     2.386000000
C    -3.405000000    -3.438000000     5.280000000
H    -2.797000000    -4.292000000     5.564000000
C    -4.021000000    -2.569000000     6.187000000
H    -3.913000000    -2.739000000     7.255000000
C    -4.861000000    -1.568000000     5.695000000
H    -5.482000000    -0.971000000     6.357000000
C    -5.009000000    -1.340000000     4.318000000
O    -5.818000000    -0.334000000     3.783000000
C    -5.377000000     0.881000000     3.326000000
C    -6.230000000     1.708000000     2.555000000
H    -7.268000000     1.457000000     2.348000000
C    -5.749000000     2.866000000     2.010000000
O    -6.554000000     3.717000000     1.199000000
C    -6.042000000     4.184000000     0.100000000
C    -5.631000000     3.371000000    -0.985000000
H    -5.558000000     2.306000000    -0.780000000
C    -5.904000000     5.610000000    -0.071000000
H    -6.317000000     6.265000000     0.692000000
C    -5.464000000     6.048000000    -1.322000000
H    -5.403000000     7.124000000    -1.465000000
C    -5.129000000     5.194000000    -2.346000000
H    -4.792000000     5.740000000    -3.223000000
C    -5.179000000     3.826000000    -2.192000000
O    -4.933000000     2.901000000    -3.154000000
C    -3.722000000     2.836000000    -3.707000000
C    -3.559000000     1.998000000    -4.785000000
H    -4.420000000     1.570000000    -5.291000000
C    -2.300000000     1.593000000    -5.316000000
O    -2.264000000     0.709000000    -6.336000000
C    -1.202000000    -0.150000000    -6.664000000
C    -0.795000000    -1.180000000    -5.845000000
H    -1.207000000    -1.321000000    -4.849000000
C    -0.349000000     0.272000000    -7.701000000
H    -0.694000000     1.066000000    -8.357000000
C     0.850000000    -0.363000000    -8.004000000
H     1.500000000    -0.035000000    -8.811000000
C     1.234000000    -1.537000000    -7.278000000
H     2.048000000    -2.209000000    -7.538000000
C     0.432000000    -1.809000000    -6.135000000
O     0.649000000    -2.990000000    -5.453000000
C     1.600000000    -3.246000000    -4.501000000
C     1.946000000    -4.592000000    -4.274000000
H     1.610000000    -5.376000000    -4.948000000
C     2.774000000    -4.906000000    -3.165000000
O     2.905000000    -6.223000000    -2.770000000
C     3.069000000    -6.662000000    -1.487000000
C     4.175000000    -7.360000000    -0.940000000
H     4.948000000    -7.722000000    -1.612000000
C     4.107000000    -7.832000000     0.350000000
H     4.898000000    -8.536000000     0.598000000
C     2.961000000    -7.563000000     1.191000000
H     2.862000000    -7.904000000     2.218000000
C     1.906000000    -6.855000000     0.686000000
C     1.948000000    -6.371000000    -0.603000000
H     1.106000000    -5.759000000    -0.916000000
O    -7.620000000    -4.051000000     1.130000000
H    -6.970000000    -3.841000000     0.459000000
H    -7.876000000    -3.201000000     1.489000000
O    -4.423000000    -1.595000000    -7.394000000
H    -4.929000000    -0.823000000    -7.142000000
H    -4.244000000    -2.044000000    -6.568000000
O    -1.536000000    -4.976000000    -4.482000000
H    -1.126000000    -4.159000000    -4.765000000
H    -1.596000000    -4.897000000    -3.530000000
O    -4.151000000    -9.610000000    -2.871000000
H    -3.646000000    -8.806000000    -2.750000000
H    -4.588000000    -9.494000000    -3.714000000
O    -2.493000000    -8.629000000     0.741000000
H    -2.672000000    -9.548000000     0.546000000
H    -3.292000000    -8.312000000     1.161000000
O    -5.517000000    -2.912000000    -0.393000000
H    -5.760000000    -1.988000000    -0.450000000
H    -4.824000000    -3.017000000    -1.045000000
O    -7.108000000    -4.979000000    -6.015000000
H    -7.338000000    -4.599000000    -6.862000000
H    -6.224000000    -5.324000000    -6.139000000
O    -2.218000000    -7.446000000    -1.776000000
H    -2.305000000    -6.503000000    -1.636000000
H    -2.258000000    -7.824000000    -0.898000000
O    -0.341000000    -7.310000000    -4.043000000
H    -0.693000000    -6.439000000    -4.227000000
H    -0.563000000    -7.469000000    -3.126000000
O    -7.869000000    -4.371000000    -1.968000000
H    -8.224000000    -3.856000000    -2.692000000
H    -7.113000000    -3.869000000    -1.665000000
O    -6.562000000    -0.475000000    -0.376000000
H    -7.444000000    -0.741000000    -0.637000000
H    -6.694000000     0.048000000     0.415000000
O    -5.983000000    -5.269000000     3.062000000
H    -6.535000000    -5.008000000     2.325000000
H    -5.419000000    -4.511000000     3.219000000
O    -5.988000000    -1.318000000    -4.006000000
H    -5.783000000    -1.784000000    -4.817000000
H    -5.318000000    -1.608000000    -3.387000000
O    -3.982000000    -5.428000000    -0.931000000
H    -4.140000000    -4.663000000    -0.378000000
H    -3.453000000    -5.094000000    -1.656000000
O    -4.561000000    -7.215000000     1.783000000
H    -4.241000000    -6.579000000     1.143000000
H    -5.010000000    -6.686000000     2.442000000
O    -6.741000000    -6.535000000    -0.737000000
H    -5.843000000    -6.341000000    -1.004000000
H    -7.255000000    -5.798000000    -1.066000000
O    -3.385000000    -6.440000000    -5.775000000
H    -3.148000000    -6.384000000    -6.701000000
H    -2.737000000    -5.895000000    -5.329000000
O    -3.912000000    -2.984000000    -4.962000000
H    -3.494000000    -3.775000000    -5.301000000
H    -3.975000000    -3.132000000    -4.018000000
O    -8.281000000     0.000000000    -3.568000000
H    -7.392000000    -0.315000000    -3.730000000
H    -8.401000000    -0.097000000    -2.624000000
