201
-1245.70316
C    -4.340000000     3.121000000     2.165000000
H    -4.030000000     4.032000000     1.661000000
C    -3.355000000     2.377000000     2.809000000
C    -3.714000000     1.180000000     3.402000000
H    -2.993000000     0.496000000     3.841000000
C    -1.864000000     2.850000000     2.886000000
O    -1.634000000     4.220000000     2.405000000
H    -1.290000000     2.111000000     2.309000000
O    -1.191000000     2.865000000     4.118000000
C     0.110000000     2.314000000     4.142000000
C     0.323000000     0.988000000     4.356000000
H    -0.544000000     0.355000000     4.530000000
C     1.595000000     0.389000000     4.252000000
O     1.793000000    -0.948000000     4.425000000
C     2.699000000     1.202000000     3.856000000
C     4.057000000     0.668000000     3.634000000
H     4.730000000     1.499000000     3.855000000
C     4.304000000     0.034000000     2.243000000
C     4.796000000     0.737000000     1.100000000
H     5.109000000     1.768000000     1.248000000
H     4.291000000    -0.105000000     4.369000000
C     2.410000000     2.516000000     3.501000000
H     3.200000000     3.156000000     3.117000000
C     1.142000000     3.134000000     3.708000000
C     1.015000000     4.557000000     3.301000000
H     2.008000000     4.995000000     3.422000000
H     0.324000000     5.144000000     3.909000000
C     0.584000000     4.681000000     1.824000000
C     1.545000000     4.869000000     0.839000000
H     2.563000000     5.029000000     1.184000000
C    -0.716000000     4.466000000     1.470000000
C    -1.180000000     4.495000000     0.152000000
H    -2.222000000     4.478000000    -0.155000000
C    -0.249000000     4.675000000    -0.823000000
O    -0.653000000     4.353000000    -2.098000000
C    -0.439000000     3.043000000    -2.641000000
C    -1.697000000     2.485000000    -3.408000000
C    -1.515000000     1.847000000    -4.583000000
H    -0.525000000     1.679000000    -5.000000000
C    -2.940000000     2.651000000    -2.813000000
H    -2.985000000     3.126000000    -1.836000000
O     0.717000000     3.080000000    -3.527000000
H    -0.187000000     2.311000000    -1.859000000
C     1.106000000     4.785000000    -0.461000000
C     2.181000000     4.737000000    -1.544000000
H     3.115000000     5.191000000    -1.205000000
H     1.800000000     5.321000000    -2.384000000
C     2.568000000     3.350000000    -2.055000000
C     3.780000000     2.746000000    -1.547000000
H     4.332000000     3.258000000    -0.763000000
C     1.899000000     2.635000000    -3.025000000
C     2.396000000     1.490000000    -3.528000000
H     1.868000000     1.034000000    -4.362000000
C     3.457000000     0.783000000    -2.924000000
O     3.826000000    -0.488000000    -3.340000000
C     3.452000000    -1.508000000    -2.361000000
C     2.784000000    -2.727000000    -2.989000000
C     1.877000000    -2.614000000    -4.026000000
H     1.743000000    -1.676000000    -4.559000000
C     2.936000000    -3.945000000    -2.363000000
H     3.680000000    -4.051000000    -1.578000000
O     4.578000000    -1.823000000    -1.466000000
H     2.653000000    -1.085000000    -1.736000000
C     4.197000000     1.484000000    -1.991000000
C     5.430000000     0.853000000    -1.351000000
H     5.998000000     1.749000000    -1.092000000
H     6.020000000     0.232000000    -2.029000000
C     5.024000000     0.093000000    -0.119000000
C     4.631000000    -1.189000000    -0.238000000
C     4.239000000    -1.950000000     0.873000000
H     4.075000000    -3.016000000     0.734000000
C     4.065000000    -1.318000000     2.089000000
O     3.402000000    -2.137000000     3.026000000
C     2.016000000    -1.822000000     3.231000000
H     1.702000000    -1.240000000     2.353000000
C     1.184000000    -3.084000000     3.177000000
C    -0.197000000    -2.999000000     3.397000000
H    -0.789000000    -2.108000000     3.591000000
C     1.742000000    -4.352000000     2.903000000
H     2.821000000    -4.488000000     2.899000000
C     0.926000000    -5.487000000     2.756000000
O     1.450000000    -6.691000000     2.515000000
C    -0.405000000    -5.405000000     3.202000000
H    -0.958000000    -6.334000000     3.314000000
C    -0.963000000    -4.158000000     3.412000000
O    -2.323000000    -4.101000000     3.663000000
C    -2.993000000    -3.131000000     4.399000000
C    -3.868000000    -2.258000000     3.758000000
H    -3.969000000    -2.227000000     2.676000000
C    -3.011000000    -3.214000000     5.840000000
H    -2.281000000    -3.881000000     6.292000000
C    -3.884000000    -2.482000000     6.578000000
H    -3.869000000    -2.513000000     7.665000000
C    -4.717000000    -1.580000000     5.948000000
H    -5.489000000    -1.061000000     6.511000000
C    -4.691000000    -1.442000000     4.576000000
O    -5.499000000    -0.392000000     4.045000000
C    -5.061000000     0.797000000     3.463000000
C    -6.019000000     1.576000000     2.826000000
H    -7.071000000     1.349000000     2.982000000
C    -5.697000000     2.756000000     2.147000000
O    -6.621000000     3.602000000     1.493000000
C    -6.356000000     4.025000000     0.189000000
C    -6.024000000     3.032000000    -0.757000000
H    -5.996000000     1.979000000    -0.488000000
C    -6.286000000     5.369000000    -0.114000000
H    -6.519000000     6.093000000     0.663000000
C    -5.906000000     5.774000000    -1.419000000
H    -5.727000000     6.816000000    -1.673000000
C    -5.654000000     4.779000000    -2.424000000
H    -5.260000000     5.040000000    -3.403000000
C    -5.672000000     3.403000000    -2.071000000
O    -5.399000000     2.541000000    -3.075000000
C    -4.080000000     2.358000000    -3.553000000
C    -3.883000000     1.596000000    -4.701000000
H    -4.800000000     1.206000000    -5.136000000
C    -2.597000000     1.285000000    -5.225000000
O    -2.534000000     0.359000000    -6.207000000
C    -1.409000000    -0.433000000    -6.420000000
C    -1.227000000    -1.583000000    -5.695000000
H    -1.875000000    -1.918000000    -4.889000000
C    -0.684000000    -0.168000000    -7.559000000
H    -0.962000000     0.644000000    -8.225000000
C     0.342000000    -0.995000000    -7.933000000
H     0.986000000    -0.646000000    -8.736000000
C     0.637000000    -2.146000000    -7.201000000
H     1.480000000    -2.796000000    -7.422000000
C    -0.124000000    -2.411000000    -6.036000000
O     0.139000000    -3.636000000    -5.390000000
C     1.190000000    -3.761000000    -4.493000000
C     1.335000000    -4.960000000    -3.857000000
H     0.708000000    -5.799000000    -4.151000000
C     2.252000000    -5.037000000    -2.784000000
O     2.356000000    -6.269000000    -2.200000000
C     2.823000000    -6.479000000    -0.893000000
C     4.048000000    -7.149000000    -0.714000000
H     4.713000000    -7.208000000    -1.572000000
C     4.402000000    -7.579000000     0.553000000
H     5.360000000    -8.060000000     0.737000000
C     3.497000000    -7.396000000     1.570000000
H     3.790000000    -7.706000000     2.570000000
C     2.289000000    -6.856000000     1.379000000
C     1.928000000    -6.292000000     0.150000000
H     1.007000000    -5.744000000    -0.027000000
O    -5.508000000    -1.754000000    -7.326000000
H    -6.262000000    -2.342000000    -7.364000000
H    -5.092000000    -1.953000000    -6.487000000
O    -1.622000000    -4.693000000    -3.196000000
H    -1.131000000    -4.203000000    -3.856000000
H    -2.362000000    -4.126000000    -2.979000000
O    -9.602000000    -1.127000000    -3.513000000
H    -8.660000000    -1.094000000    -3.681000000
H    -9.981000000    -1.426000000    -4.339000000
O    -3.285000000    -4.167000000    -6.827000000
H    -3.404000000    -3.403000000    -6.264000000
H    -3.986000000    -4.766000000    -6.569000000
O    -8.321000000     0.319000000     0.288000000
H    -8.890000000    -0.012000000    -0.407000000
H    -8.572000000     1.238000000     0.385000000
O    -7.588000000    -3.304000000    -4.392000000
H    -8.510000000    -3.118000000    -4.574000000
H    -7.375000000    -4.041000000    -4.964000000
O    -7.835000000     0.729000000    -5.577000000
H    -8.383000000     1.503000000    -5.443000000
H    -7.544000000     0.487000000    -4.698000000
O    -4.597000000    -4.332000000    -0.446000000
H    -4.299000000    -3.939000000    -1.266000000
H    -4.703000000    -3.591000000     0.151000000
O    -3.467000000    -6.797000000    -0.370000000
H    -4.149000000    -7.345000000    -0.758000000
H    -3.858000000    -5.924000000    -0.326000000
O    -8.934000000    -2.961000000     0.538000000
H    -8.534000000    -2.262000000     1.056000000
H    -8.491000000    -2.915000000    -0.309000000
O    -7.021000000    -2.746000000     2.662000000
H    -6.674000000    -2.472000000     3.510000000
H    -6.637000000    -2.131000000     2.036000000
O    -6.583000000     0.051000000    -3.211000000
H    -6.292000000     0.961000000    -3.143000000
H    -6.143000000    -0.396000000    -2.488000000
O    -7.348000000    -2.561000000    -1.715000000
H    -7.610000000    -2.635000000    -2.633000000
H    -6.421000000    -2.324000000    -1.750000000
O    -5.924000000    -1.051000000     0.868000000
H    -6.510000000    -0.311000000     0.711000000
H    -5.490000000    -1.196000000     0.027000000
O    -1.026000000    -6.908000000    -1.921000000
H    -0.916000000    -6.074000000    -2.377000000
H    -1.956000000    -6.937000000    -1.696000000
O    -4.137000000    -6.097000000    -4.747000000
H    -3.429000000    -6.722000000    -4.903000000
H    -3.817000000    -5.546000000    -4.033000000
O    -4.719000000    -2.617000000    -4.904000000
H    -5.649000000    -2.751000000    -4.723000000
H    -4.300000000    -2.653000000    -4.044000000
O    -6.643000000    -6.694000000    -3.677000000
H    -6.928000000    -7.569000000    -3.939000000
H    -5.767000000    -6.604000000    -4.052000000
O    -7.297000000    -5.391000000    -1.484000000
H    -6.702000000    -4.643000000    -1.433000000
H    -7.112000000    -5.787000000    -2.336000000
