201
-1247.88597
C    -4.168000000     0.785000000     2.169000000
H    -4.084000000     1.651000000     1.517000000
C    -3.338000000     0.533000000     3.240000000
C    -3.475000000    -0.644000000     3.982000000
H    -2.706000000    -0.901000000     4.705000000
C    -2.025000000     1.254000000     3.266000000
O    -2.292000000     2.659000000     3.024000000
H    -1.458000000     0.947000000     2.375000000
O    -1.366000000     1.157000000     4.575000000
C    -0.002000000     0.957000000     4.648000000
C     0.475000000    -0.332000000     4.669000000
H    -0.199000000    -1.172000000     4.815000000
C     1.822000000    -0.598000000     4.345000000
O     2.167000000    -1.927000000     4.147000000
C     2.740000000     0.422000000     4.154000000
C     4.249000000     0.176000000     3.753000000
H     4.778000000     1.099000000     4.000000000
C     4.456000000    -0.121000000     2.309000000
C     4.888000000     0.896000000     1.460000000
H     4.979000000     1.914000000     1.833000000
H     4.799000000    -0.578000000     4.320000000
C     2.296000000     1.718000000     4.289000000
H     2.975000000     2.567000000     4.257000000
C     0.884000000     2.033000000     4.433000000
C     0.393000000     3.440000000     4.395000000
H     1.171000000     4.132000000     4.723000000
H    -0.450000000     3.616000000     5.067000000
C    -0.108000000     3.803000000     3.014000000
C     0.806000000     4.453000000     2.157000000
H     1.778000000     4.639000000     2.608000000
C    -1.318000000     3.422000000     2.406000000
C    -1.736000000     3.848000000     1.148000000
H    -2.725000000     3.598000000     0.771000000
C    -0.824000000     4.501000000     0.347000000
O    -1.163000000     4.763000000    -0.973000000
C    -0.729000000     3.847000000    -2.025000000
C    -1.913000000     3.529000000    -2.916000000
C    -1.571000000     3.054000000    -4.184000000
H    -0.543000000     3.027000000    -4.535000000
C    -3.244000000     3.467000000    -2.499000000
H    -3.492000000     3.860000000    -1.516000000
O     0.450000000     4.420000000    -2.653000000
H    -0.467000000     2.864000000    -1.605000000
C     0.499000000     4.747000000     0.823000000
C     1.590000000     5.285000000    -0.087000000
H     2.395000000     5.670000000     0.543000000
H     1.168000000     6.110000000    -0.663000000
C     2.124000000     4.221000000    -0.979000000
C     3.351000000     3.626000000    -0.612000000
H     3.940000000     4.017000000     0.213000000
C     1.580000000     3.839000000    -2.130000000
C     2.155000000     2.813000000    -2.934000000
H     1.630000000     2.489000000    -3.828000000
C     3.297000000     2.076000000    -2.402000000
O     3.687000000     0.877000000    -3.041000000
C     3.509000000    -0.406000000    -2.475000000
C     3.108000000    -1.301000000    -3.665000000
C     2.419000000    -0.705000000    -4.729000000
H     2.172000000     0.350000000    -4.814000000
C     3.266000000    -2.605000000    -3.635000000
H     3.873000000    -2.960000000    -2.806000000
O     4.677000000    -0.817000000    -1.751000000
H     2.706000000    -0.311000000    -1.729000000
C     3.905000000     2.502000000    -1.260000000
C     5.209000000     1.903000000    -0.840000000
H     5.776000000     2.615000000    -0.236000000
H     5.763000000     1.661000000    -1.749000000
C     4.969000000     0.687000000     0.057000000
C     4.706000000    -0.616000000    -0.376000000
C     4.328000000    -1.633000000     0.436000000
H     4.257000000    -2.624000000    -0.004000000
C     4.269000000    -1.402000000     1.836000000
O     3.799000000    -2.548000000     2.527000000
C     2.358000000    -2.390000000     2.834000000
H     1.951000000    -1.616000000     2.167000000
C     1.471000000    -3.557000000     2.555000000
C     0.725000000    -4.108000000     3.594000000
H     0.711000000    -3.629000000     4.570000000
C     1.372000000    -4.085000000     1.271000000
H     1.990000000    -3.776000000     0.433000000
C     0.537000000    -5.197000000     0.967000000
O     0.452000000    -5.742000000    -0.368000000
C    -0.249000000    -5.749000000     2.014000000
H    -0.859000000    -6.644000000     1.927000000
C    -0.223000000    -5.182000000     3.323000000
O    -1.038000000    -5.771000000     4.314000000
C    -2.052000000    -5.059000000     4.995000000
C    -2.796000000    -4.034000000     4.385000000
H    -2.470000000    -3.737000000     3.392000000
C    -2.374000000    -5.391000000     6.344000000
H    -1.746000000    -6.127000000     6.841000000
C    -3.444000000    -4.804000000     7.027000000
H    -3.744000000    -5.111000000     8.026000000
C    -4.236000000    -3.869000000     6.314000000
H    -5.197000000    -3.520000000     6.685000000
C    -3.859000000    -3.407000000     5.045000000
O    -4.755000000    -2.584000000     4.392000000
C    -4.479000000    -1.494000000     3.660000000
C    -5.409000000    -1.149000000     2.691000000
H    -6.198000000    -1.862000000     2.464000000
C    -5.295000000     0.003000000     1.980000000
O    -6.306000000     0.304000000     1.028000000
C    -6.374000000     1.457000000     0.273000000
C    -5.900000000     1.611000000    -1.057000000
H    -5.375000000     0.731000000    -1.417000000
C    -7.230000000     2.484000000     0.784000000
H    -7.702000000     2.283000000     1.743000000
C    -7.461000000     3.654000000     0.087000000
H    -8.117000000     4.444000000     0.444000000
C    -6.819000000     3.890000000    -1.159000000
H    -7.098000000     4.739000000    -1.778000000
C    -6.101000000     2.821000000    -1.793000000
O    -5.524000000     2.951000000    -3.045000000
C    -4.221000000     2.968000000    -3.321000000
C    -3.865000000     2.691000000    -4.601000000
H    -4.586000000     2.268000000    -5.297000000
C    -2.531000000     2.580000000    -5.053000000
O    -2.300000000     2.108000000    -6.283000000
C    -1.096000000     1.807000000    -6.783000000
C    -0.565000000     0.553000000    -6.491000000
H    -1.287000000    -0.168000000    -6.118000000
C    -0.368000000     2.839000000    -7.395000000
H    -0.661000000     3.886000000    -7.410000000
C     0.900000000     2.539000000    -7.707000000
H     1.604000000     3.271000000    -8.096000000
C     1.469000000     1.247000000    -7.541000000
H     2.443000000     0.883000000    -7.858000000
C     0.745000000     0.257000000    -6.924000000
O     1.220000000    -1.060000000    -6.805000000
C     1.846000000    -1.531000000    -5.718000000
C     2.006000000    -2.892000000    -5.713000000
H     1.627000000    -3.464000000    -6.556000000
C     2.699000000    -3.470000000    -4.579000000
O     2.806000000    -4.829000000    -4.375000000
C     2.804000000    -5.345000000    -3.140000000
C     4.028000000    -5.758000000    -2.495000000
H     4.987000000    -5.675000000    -3.001000000
C     3.985000000    -6.269000000    -1.243000000
H     4.944000000    -6.474000000    -0.775000000
C     2.765000000    -6.246000000    -0.503000000
H     2.721000000    -6.608000000     0.521000000
C     1.595000000    -5.761000000    -1.086000000
C     1.603000000    -5.382000000    -2.423000000
H     0.693000000    -5.082000000    -2.936000000
O    -5.461000000    -6.910000000    -3.296000000
H    -5.894000000    -6.674000000    -4.117000000
H    -6.124000000    -7.399000000    -2.809000000
O    -1.277000000    -4.069000000    -4.613000000
H    -0.544000000    -3.470000000    -4.755000000
H    -1.945000000    -3.532000000    -4.187000000
O    -0.035000000    -6.552000000    -5.552000000
H    -0.116000000    -6.726000000    -6.490000000
H    -0.391000000    -5.671000000    -5.440000000
O    -4.905000000    -5.738000000     1.446000000
H    -5.743000000    -5.287000000     1.549000000
H    -4.304000000    -5.059000000     1.141000000
O    -3.931000000    -1.617000000    -8.560000000
H    -4.201000000    -1.609000000    -7.642000000
H    -3.086000000    -2.068000000    -8.557000000
O    -8.748000000     0.468000000    -3.430000000
H    -8.330000000     0.831000000    -4.211000000
H    -8.039000000     0.027000000    -2.962000000
O    -3.035000000    -5.852000000    -2.419000000
H    -3.914000000    -6.037000000    -2.750000000
H    -2.557000000    -5.523000000    -3.180000000
O    -7.278000000    -4.217000000     0.735000000
H    -7.936000000    -4.281000000     0.043000000
H    -6.619000000    -3.618000000     0.384000000
O    -2.859000000    -4.193000000    -0.183000000
H    -1.921000000    -4.088000000    -0.023000000
H    -2.908000000    -4.763000000    -0.951000000
O    -2.664000000    -7.668000000    -0.407000000
H    -3.191000000    -6.913000000    -0.149000000
H    -2.622000000    -7.615000000    -1.362000000
O    -8.777000000    -2.282000000    -0.825000000
H    -9.054000000    -1.389000000    -0.617000000
H    -7.984000000    -2.171000000    -1.350000000
O    -6.932000000    -1.285000000    -2.665000000
H    -5.995000000    -1.106000000    -2.748000000
H    -7.129000000    -1.870000000    -3.397000000
O    -5.453000000    -3.973000000    -3.550000000
H    -5.978000000    -4.129000000    -2.765000000
H    -4.863000000    -3.259000000    -3.305000000
O    -5.544000000    -2.732000000    -0.468000000
H    -5.650000000    -1.890000000    -0.910000000
H    -4.639000000    -2.986000000    -0.649000000
O    -2.732000000    -5.153000000    -7.416000000
H    -2.150000000    -4.397000000    -7.494000000
H    -3.583000000    -4.777000000    -7.189000000
O    -1.236000000    -2.985000000    -8.112000000
H    -0.671000000    -2.345000000    -7.678000000
H    -0.760000000    -3.226000000    -8.906000000
O    -5.565000000    -4.432000000    -6.390000000
H    -5.155000000    -4.306000000    -5.534000000
H    -5.901000000    -5.328000000    -6.365000000
O    -3.600000000    -0.888000000    -5.990000000
H    -3.625000000    -0.010000000    -5.610000000
H    -3.442000000    -1.467000000    -5.244000000
O    -7.974000000    -2.532000000    -5.274000000
H    -8.577000000    -3.274000000    -5.222000000
H    -7.112000000    -2.932000000    -5.387000000
