201
-1249.54678
C    -3.732000000     0.796000000     2.834000000
H    -3.388000000     1.653000000     2.261000000
C    -2.851000000     0.253000000     3.748000000
C    -3.265000000    -0.866000000     4.477000000
H    -2.547000000    -1.265000000     5.189000000
C    -1.472000000     0.914000000     3.782000000
O    -1.579000000     2.329000000     3.882000000
H    -1.023000000     0.659000000     2.810000000
O    -0.674000000     0.334000000     4.882000000
C     0.601000000     0.007000000     4.632000000
C     0.927000000    -1.311000000     4.393000000
H     0.205000000    -2.083000000     4.647000000
C     2.174000000    -1.740000000     3.986000000
O     2.338000000    -2.971000000     3.401000000
C     3.140000000    -0.767000000     3.735000000
C     4.561000000    -1.300000000     3.228000000
H     5.286000000    -0.698000000     3.780000000
C     4.650000000    -1.200000000     1.662000000
C     5.013000000     0.005000000     1.092000000
H     5.275000000     0.837000000     1.741000000
H     4.783000000    -2.313000000     3.570000000
C     2.863000000     0.612000000     3.965000000
H     3.513000000     1.387000000     3.567000000
C     1.595000000     0.967000000     4.484000000
C     1.296000000     2.448000000     4.698000000
H     2.294000000     2.824000000     4.930000000
H     0.780000000     2.760000000     5.608000000
C     0.703000000     3.203000000     3.483000000
C     1.648000000     3.849000000     2.653000000
H     2.729000000     3.844000000     2.769000000
C    -0.634000000     3.069000000     3.121000000
C    -1.154000000     3.709000000     2.013000000
H    -2.199000000     3.550000000     1.759000000
C    -0.285000000     4.327000000     1.146000000
O    -0.825000000     4.919000000     0.058000000
C    -0.678000000     4.206000000    -1.143000000
C    -1.884000000     4.242000000    -2.077000000
C    -1.731000000     4.054000000    -3.424000000
H    -0.798000000     3.967000000    -3.974000000
C    -3.171000000     4.501000000    -1.544000000
H    -3.256000000     4.577000000    -0.463000000
O     0.517000000     4.559000000    -1.879000000
H    -0.557000000     3.192000000    -0.735000000
C     1.100000000     4.382000000     1.460000000
C     2.041000000     5.022000000     0.469000000
H     2.917000000     5.435000000     0.973000000
H     1.520000000     5.844000000    -0.027000000
C     2.483000000     4.032000000    -0.510000000
C     3.548000000     3.200000000    -0.289000000
H     4.098000000     3.341000000     0.639000000
C     1.747000000     3.899000000    -1.706000000
C     2.028000000     2.893000000    -2.577000000
H     1.487000000     2.733000000    -3.506000000
C     3.224000000     2.139000000    -2.401000000
O     3.503000000     1.112000000    -3.287000000
C     3.006000000    -0.141000000    -2.914000000
C     2.320000000    -0.898000000    -4.015000000
C     1.463000000    -0.200000000    -4.866000000
H     1.529000000     0.885000000    -4.847000000
C     2.257000000    -2.309000000    -4.032000000
H     2.810000000    -2.880000000    -3.292000000
O     4.177000000    -0.829000000    -2.428000000
H     2.236000000    -0.105000000    -2.129000000
C     3.977000000     2.284000000    -1.252000000
C     5.228000000     1.433000000    -0.982000000
H     5.954000000     2.036000000    -0.433000000
H     5.684000000     1.198000000    -1.947000000
C     4.913000000     0.121000000    -0.292000000
C     4.443000000    -0.968000000    -1.077000000
C     4.125000000    -2.150000000    -0.451000000
H     3.802000000    -2.991000000    -1.058000000
C     4.148000000    -2.238000000     0.905000000
O     3.559000000    -3.355000000     1.469000000
C     2.275000000    -3.033000000     1.992000000
H     2.052000000    -2.021000000     1.625000000
C     1.258000000    -4.068000000     1.544000000
C     0.193000000    -4.359000000     2.381000000
H     0.115000000    -3.780000000     3.298000000
C     1.324000000    -4.678000000     0.287000000
H     2.119000000    -4.419000000    -0.408000000
C     0.339000000    -5.677000000    -0.046000000
O     0.212000000    -6.347000000    -1.285000000
C    -0.537000000    -6.114000000     0.921000000
H    -1.190000000    -6.980000000     0.848000000
C    -0.617000000    -5.451000000     2.159000000
O    -1.582000000    -5.872000000     2.978000000
C    -2.156000000    -5.187000000     4.001000000
C    -3.254000000    -4.330000000     3.836000000
H    -3.545000000    -4.229000000     2.793000000
C    -1.503000000    -5.249000000     5.244000000
H    -0.654000000    -5.913000000     5.384000000
C    -2.008000000    -4.556000000     6.306000000
H    -1.512000000    -4.639000000     7.270000000
C    -3.174000000    -3.803000000     6.257000000
H    -3.549000000    -3.210000000     7.087000000
C    -3.763000000    -3.641000000     4.966000000
O    -4.785000000    -2.619000000     4.906000000
C    -4.512000000    -1.448000000     4.230000000
C    -5.389000000    -0.918000000     3.293000000
H    -6.332000000    -1.385000000     3.020000000
C    -4.969000000     0.194000000     2.546000000
O    -5.748000000     0.723000000     1.572000000
C    -5.931000000     2.078000000     1.225000000
C    -5.660000000     2.527000000    -0.081000000
H    -5.382000000     1.847000000    -0.882000000
C    -6.397000000     2.946000000     2.112000000
H    -6.663000000     2.602000000     3.109000000
C    -6.664000000     4.284000000     1.827000000
H    -7.009000000     5.034000000     2.535000000
C    -6.302000000     4.785000000     0.579000000
H    -6.547000000     5.815000000     0.332000000
C    -5.894000000     3.864000000    -0.373000000
O    -5.577000000     4.426000000    -1.687000000
C    -4.353000000     4.304000000    -2.273000000
C    -4.220000000     4.176000000    -3.634000000
H    -5.122000000     4.113000000    -4.237000000
C    -2.963000000     4.004000000    -4.210000000
O    -2.864000000     3.652000000    -5.508000000
C    -1.723000000     3.213000000    -6.129000000
C    -1.502000000     1.819000000    -6.203000000
H    -2.242000000     1.150000000    -5.772000000
C    -0.828000000     4.075000000    -6.661000000
H    -1.016000000     5.134000000    -6.502000000
C     0.404000000     3.614000000    -7.082000000
H     1.106000000     4.376000000    -7.412000000
C     0.661000000     2.243000000    -7.151000000
H     1.577000000     1.760000000    -7.479000000
C    -0.280000000     1.314000000    -6.789000000
O     0.002000000    -0.028000000    -6.819000000
C     0.763000000    -0.744000000    -5.875000000
C     0.830000000    -2.173000000    -6.015000000
H     0.248000000    -2.522000000    -6.864000000
C     1.549000000    -2.912000000    -5.077000000
O     1.733000000    -4.259000000    -5.321000000
C     1.871000000    -5.187000000    -4.336000000
C     2.970000000    -6.052000000    -4.329000000
H     3.754000000    -6.010000000    -5.081000000
C     3.126000000    -6.969000000    -3.279000000
H     4.044000000    -7.541000000    -3.388000000
C     2.295000000    -6.978000000    -2.232000000
H     2.491000000    -7.599000000    -1.362000000
C     1.100000000    -6.199000000    -2.284000000
C     0.949000000    -5.274000000    -3.312000000
H     0.056000000    -4.664000000    -3.418000000
O    -3.160000000    -1.000000000    -6.767000000
H    -2.836000000    -1.549000000    -6.053000000
H    -2.582000000    -1.199000000    -7.504000000
O    -9.774000000    -3.113000000    -3.038000000
H    -8.941000000    -3.420000000    -3.394000000
H   -10.389000000    -3.824000000    -3.221000000
O    -5.939000000    -4.398000000    -0.224000000
H    -6.443000000    -3.620000000     0.017000000
H    -5.356000000    -4.098000000    -0.922000000
O    -7.308000000    -3.831000000    -3.876000000
H    -6.590000000    -4.464000000    -3.860000000
H    -6.907000000    -3.023000000    -4.196000000
O    -2.215000000    -2.706000000    -4.994000000
H    -1.809000000    -3.551000000    -5.188000000
H    -2.611000000    -2.822000000    -4.130000000
O    -6.859000000     0.872000000    -4.357000000
H    -7.518000000     0.272000000    -4.707000000
H    -6.092000000     0.737000000    -4.913000000
O    -8.108000000    -6.047000000    -0.754000000
H    -8.854000000    -5.553000000    -0.414000000
H    -7.342000000    -5.539000000    -0.485000000
O    -4.728000000    -6.922000000    -0.267000000
H    -5.406000000    -6.273000000    -0.081000000
H    -4.109000000    -6.467000000    -0.837000000
O    -3.372000000    -7.138000000    -3.905000000
H    -3.099000000    -6.916000000    -3.015000000
H    -2.635000000    -7.632000000    -4.264000000
O    -2.546000000    -5.823000000    -1.592000000
H    -2.778000000    -5.034000000    -2.082000000
H    -1.600000000    -5.758000000    -1.467000000
O    -8.614000000     1.424000000    -1.038000000
H    -7.762000000     1.033000000    -1.233000000
H    -9.082000000     0.748000000    -0.549000000
O    -5.579000000    -1.900000000    -4.576000000
H    -4.728000000    -2.270000000    -4.810000000
H    -5.487000000    -1.649000000    -3.657000000
O    -6.614000000    -0.201000000    -1.679000000
H    -5.775000000    -0.660000000    -1.731000000
H    -6.732000000     0.181000000    -2.548000000
O    -7.198000000    -7.221000000    -3.078000000
H    -7.534000000    -6.999000000    -2.210000000
H    -6.564000000    -6.531000000    -3.274000000
O    -8.205000000    -2.225000000    -0.744000000
H    -8.775000000    -2.512000000    -1.458000000
H    -7.534000000    -1.693000000    -1.172000000
O    -5.076000000    -5.149000000    -3.582000000
H    -4.538000000    -5.877000000    -3.893000000
H    -4.445000000    -4.469000000    -3.347000000
O    -1.391000000    -5.001000000    -6.361000000
H    -1.562000000    -5.941000000    -6.311000000
H    -0.489000000    -4.937000000    -6.674000000
O    -5.011000000     0.767000000    -6.569000000
H    -4.286000000     0.142000000    -6.550000000
H    -5.706000000     0.313000000    -7.047000000
O    -6.555000000    -1.603000000    -7.085000000
H    -6.292000000    -1.810000000    -6.188000000
H    -6.595000000    -2.452000000    -7.524000000
