201
-1229.79374
C    -4.772000000     0.772000000     1.868000000
H    -4.709000000     1.844000000     1.697000000
C    -3.759000000     0.145000000     2.700000000
C    -3.861000000    -1.214000000     2.840000000
H    -3.172000000    -1.811000000     3.433000000
C    -2.551000000     0.842000000     3.184000000
O    -2.847000000     2.162000000     3.312000000
H    -1.783000000     0.780000000     2.399000000
O    -2.052000000     0.342000000     4.407000000
C    -0.692000000     0.280000000     4.510000000
C    -0.051000000    -0.971000000     4.491000000
H    -0.766000000    -1.759000000     4.266000000
C     1.301000000    -1.096000000     4.396000000
O     1.725000000    -2.307000000     4.089000000
C     2.128000000     0.058000000     4.464000000
C     3.621000000    -0.052000000     4.208000000
H     4.103000000     0.756000000     4.761000000
C     4.067000000    -0.081000000     2.800000000
C     4.340000000     1.129000000     2.238000000
H     4.274000000     2.078000000     2.764000000
H     3.970000000    -0.979000000     4.668000000
C     1.490000000     1.287000000     4.750000000
H     2.227000000     2.083000000     4.828000000
C     0.142000000     1.383000000     4.767000000
C    -0.452000000     2.827000000     4.803000000
H     0.132000000     3.538000000     5.392000000
H    -1.404000000     2.718000000     5.326000000
C    -0.745000000     3.322000000     3.369000000
C     0.245000000     3.996000000     2.654000000
H     1.191000000     4.267000000     3.116000000
C    -1.971000000     3.088000000     2.731000000
C    -2.278000000     3.589000000     1.443000000
H    -3.207000000     3.378000000     0.920000000
C    -1.229000000     4.238000000     0.817000000
O    -1.487000000     4.584000000    -0.469000000
C    -0.905000000     3.712000000    -1.514000000
C    -1.893000000     3.286000000    -2.627000000
C    -1.439000000     3.138000000    -3.949000000
H    -0.386000000     3.283000000    -4.181000000
C    -3.287000000     3.192000000    -2.313000000
H    -3.624000000     3.357000000    -1.293000000
O     0.182000000     4.401000000    -2.054000000
H    -0.498000000     2.832000000    -0.994000000
C    -0.075000000     4.598000000     1.444000000
C     0.972000000     5.408000000     0.755000000
H     1.613000000     5.896000000     1.493000000
H     0.485000000     6.197000000     0.178000000
C     1.816000000     4.558000000    -0.191000000
C     3.027000000     4.048000000     0.280000000
H     3.388000000     4.426000000     1.234000000
C     1.427000000     4.275000000    -1.525000000
C     2.228000000     3.382000000    -2.243000000
H     1.755000000     2.982000000    -3.137000000
C     3.401000000     2.867000000    -1.707000000
O     3.942000000     1.852000000    -2.424000000
C     3.617000000     0.521000000    -1.901000000
C     3.305000000    -0.438000000    -3.045000000
C     2.471000000    -0.113000000    -4.205000000
H     2.123000000     0.906000000    -4.352000000
C     3.636000000    -1.798000000    -3.006000000
H     4.105000000    -2.156000000    -2.093000000
O     4.752000000     0.022000000    -1.203000000
H     2.704000000     0.426000000    -1.295000000
C     3.887000000     3.178000000    -0.436000000
C     5.116000000     2.530000000     0.261000000
H     5.642000000     3.141000000     0.998000000
H     5.822000000     2.296000000    -0.538000000
C     4.697000000     1.163000000     0.927000000
C     4.685000000     0.006000000     0.184000000
C     4.313000000    -1.227000000     0.680000000
H     4.370000000    -2.143000000     0.098000000
C     3.989000000    -1.257000000     2.000000000
O     3.548000000    -2.452000000     2.539000000
C     2.102000000    -2.579000000     2.704000000
H     1.558000000    -1.856000000     2.077000000
C     1.710000000    -4.016000000     2.228000000
C     0.477000000    -4.439000000     2.614000000
H    -0.050000000    -3.946000000     3.426000000
C     2.403000000    -4.802000000     1.361000000
H     3.383000000    -4.465000000     1.034000000
C     1.901000000    -5.976000000     0.796000000
O     2.514000000    -6.586000000    -0.229000000
C     0.630000000    -6.366000000     1.157000000
H     0.259000000    -7.298000000     0.740000000
C    -0.074000000    -5.604000000     2.087000000
O    -1.310000000    -6.071000000     2.492000000
C    -2.260000000    -5.446000000     3.204000000
C    -3.212000000    -4.575000000     2.580000000
H    -3.148000000    -4.385000000     1.512000000
C    -2.590000000    -5.879000000     4.440000000
H    -1.997000000    -6.714000000     4.804000000
C    -3.554000000    -5.296000000     5.240000000
H    -3.575000000    -5.633000000     6.273000000
C    -4.428000000    -4.402000000     4.671000000
H    -5.216000000    -3.997000000     5.301000000
C    -4.202000000    -4.035000000     3.312000000
O    -5.127000000    -3.207000000     2.669000000
C    -4.962000000    -1.910000000     2.429000000
C    -5.984000000    -1.319000000     1.755000000
H    -6.856000000    -1.867000000     1.405000000
C    -5.893000000     0.026000000     1.463000000
O    -7.026000000     0.606000000     0.941000000
C    -6.968000000     1.733000000     0.103000000
C    -6.250000000     1.632000000    -1.075000000
H    -5.815000000     0.661000000    -1.294000000
C    -7.588000000     2.940000000     0.404000000
H    -8.214000000     3.153000000     1.267000000
C    -7.518000000     4.029000000    -0.443000000
H    -8.038000000     4.910000000    -0.076000000
C    -6.679000000     3.959000000    -1.532000000
H    -6.404000000     4.836000000    -2.112000000
C    -6.097000000     2.682000000    -1.856000000
O    -5.455000000     2.503000000    -3.041000000
C    -4.153000000     2.764000000    -3.272000000
C    -3.714000000     2.634000000    -4.564000000
H    -4.406000000     2.255000000    -5.313000000
C    -2.372000000     2.808000000    -4.946000000
O    -2.011000000     2.528000000    -6.298000000
C    -0.705000000     2.230000000    -6.567000000
C    -0.228000000     0.947000000    -6.389000000
H    -0.795000000     0.185000000    -5.860000000
C     0.207000000     3.232000000    -6.999000000
H    -0.127000000     4.264000000    -7.067000000
C     1.521000000     2.942000000    -7.360000000
H     2.148000000     3.743000000    -7.745000000
C     1.943000000     1.650000000    -7.211000000
H     2.874000000     1.248000000    -7.603000000
C     1.120000000     0.651000000    -6.728000000
O     1.512000000    -0.664000000    -6.473000000
C     2.277000000    -0.998000000    -5.348000000
C     2.607000000    -2.291000000    -5.127000000
H     2.250000000    -3.116000000    -5.738000000
C     3.312000000    -2.714000000    -4.033000000
O     3.746000000    -4.018000000    -4.018000000
C     4.049000000    -4.726000000    -2.913000000
C     5.379000000    -5.168000000    -2.769000000
H     6.063000000    -5.016000000    -3.600000000
C     5.790000000    -5.913000000    -1.676000000
H     6.791000000    -6.337000000    -1.663000000
C     4.769000000    -6.393000000    -0.864000000
H     5.010000000    -7.103000000    -0.077000000
C     3.449000000    -6.033000000    -1.084000000
C     3.079000000    -5.172000000    -2.081000000
H     2.043000000    -4.864000000    -2.197000000
O    -3.384000000    -5.396000000    -3.318000000
H    -2.969000000    -4.566000000    -3.552000000
H    -3.032000000    -6.026000000    -3.947000000
O    -0.459000000    -4.910000000    -2.293000000
H    -0.870000000    -4.414000000    -3.001000000
H    -1.006000000    -4.736000000    -1.528000000
O    -2.681000000    -5.211000000    -0.767000000
H    -3.010000000    -5.383000000    -1.650000000
H    -2.330000000    -6.053000000    -0.475000000
O    -6.729000000     0.769000000    -5.962000000
H    -6.615000000     0.081000000    -6.618000000
H    -6.202000000     0.480000000    -5.217000000
O    -4.181000000    -6.280000000    -7.601000000
H    -3.727000000    -5.490000000    -7.895000000
H    -4.893000000    -5.955000000    -7.051000000
O    -4.437000000    -3.308000000    -1.042000000
H    -3.639000000    -3.823000000    -0.927000000
H    -4.279000000    -2.794000000    -1.834000000
O    -6.976000000    -1.855000000    -1.575000000
H    -6.217000000    -2.356000000    -1.277000000
H    -7.652000000    -2.033000000    -0.921000000
O    -2.742000000    -3.795000000    -8.102000000
H    -2.206000000    -4.158000000    -7.398000000
H    -2.145000000    -3.227000000    -8.590000000
O    -6.270000000    -5.625000000    -5.868000000
H    -6.852000000    -5.823000000    -5.135000000
H    -5.780000000    -4.854000000    -5.584000000
O    -6.038000000    -6.212000000    -2.582000000
H    -5.206000000    -5.765000000    -2.739000000
H    -5.863000000    -7.127000000    -2.802000000
O    -2.523000000    -6.853000000    -5.504000000
H    -3.068000000    -7.301000000    -6.151000000
H    -2.154000000    -6.106000000    -5.977000000
O    -4.419000000    -3.286000000    -5.349000000
H    -4.005000000    -2.824000000    -4.620000000
H    -3.882000000    -3.060000000    -6.110000000
O    -6.620000000    -4.964000000    -0.280000000
H    -5.820000000    -4.440000000    -0.238000000
H    -6.530000000    -5.475000000    -1.085000000
O     0.212000000    -7.483000000    -3.056000000
H    -0.662000000    -7.863000000    -2.968000000
H     0.123000000    -6.595000000    -2.709000000
O    -7.252000000    -2.954000000    -6.587000000
H    -6.559000000    -2.761000000    -5.954000000
H    -7.073000000    -2.368000000    -7.323000000
O    -0.423000000    -1.521000000    -9.134000000
H    -0.409000000    -0.626000000    -9.473000000
H    -0.833000000    -1.444000000    -8.273000000
O    -5.571000000    -0.595000000    -3.853000000
H    -4.783000000    -1.029000000    -3.528000000
H    -6.290000000    -1.030000000    -3.395000000
O    -3.701000000     0.679000000    -8.474000000
H    -2.829000000     0.598000000    -8.088000000
H    -3.546000000     0.670000000    -9.418000000
O    -0.969000000    -4.545000000    -6.143000000
H    -1.282000000    -3.939000000    -5.471000000
H    -0.091000000    -4.793000000    -5.853000000
