201
-1251.61343
C    -4.670000000     0.108000000     2.874000000
H    -4.997000000     1.138000000     2.756000000
C    -3.419000000    -0.156000000     3.431000000
C    -3.081000000    -1.494000000     3.494000000
H    -2.028000000    -1.733000000     3.618000000
C    -2.389000000     0.986000000     3.661000000
O    -2.999000000     2.299000000     3.628000000
H    -1.681000000     0.948000000     2.819000000
O    -1.538000000     0.709000000     4.796000000
C    -0.139000000     0.894000000     4.607000000
C     0.698000000    -0.258000000     4.440000000
H     0.166000000    -1.203000000     4.521000000
C     2.037000000    -0.167000000     4.091000000
O     2.766000000    -1.338000000     3.916000000
C     2.604000000     1.112000000     3.950000000
C     4.091000000     1.303000000     3.661000000
H     4.397000000     2.309000000     3.955000000
C     4.383000000     1.133000000     2.144000000
C     4.496000000     2.262000000     1.358000000
H     4.318000000     3.229000000     1.822000000
H     4.614000000     0.562000000     4.268000000
C     1.823000000     2.288000000     4.071000000
H     2.332000000     3.244000000     3.978000000
C     0.444000000     2.146000000     4.442000000
C    -0.499000000     3.393000000     4.477000000
H     0.112000000     4.246000000     4.780000000
H    -1.288000000     3.276000000     5.224000000
C    -1.094000000     3.655000000     3.099000000
C    -0.517000000     4.558000000     2.249000000
H     0.440000000     5.025000000     2.468000000
C    -2.377000000     3.157000000     2.782000000
C    -2.946000000     3.447000000     1.561000000
H    -3.843000000     2.987000000     1.155000000
C    -2.222000000     4.168000000     0.617000000
O    -2.726000000     4.211000000    -0.622000000
C    -2.016000000     3.411000000    -1.679000000
C    -2.903000000     2.737000000    -2.727000000
C    -2.545000000     2.709000000    -4.075000000
H    -1.708000000     3.269000000    -4.484000000
C    -4.103000000     2.081000000    -2.353000000
H    -4.354000000     2.096000000    -1.295000000
O    -1.071000000     4.296000000    -2.327000000
H    -1.493000000     2.579000000    -1.185000000
C    -1.022000000     4.760000000     0.975000000
C    -0.185000000     5.641000000    -0.025000000
H     0.311000000     6.463000000     0.494000000
H    -0.892000000     6.105000000    -0.716000000
C     0.731000000     4.737000000    -0.850000000
C     2.093000000     4.537000000    -0.516000000
H     2.439000000     5.076000000     0.362000000
C     0.235000000     4.137000000    -2.000000000
C     0.967000000     3.173000000    -2.709000000
H     0.465000000     2.744000000    -3.572000000
C     2.303000000     2.911000000    -2.328000000
O     2.933000000     1.898000000    -3.041000000
C     3.126000000     0.649000000    -2.393000000
C     2.769000000    -0.459000000    -3.346000000
C     2.164000000    -0.224000000    -4.632000000
H     2.176000000     0.787000000    -5.032000000
C     2.795000000    -1.770000000    -2.856000000
H     2.973000000    -1.935000000    -1.796000000
O     4.487000000     0.581000000    -1.937000000
H     2.449000000     0.537000000    -1.534000000
C     2.923000000     3.633000000    -1.257000000
C     4.416000000     3.403000000    -0.849000000
H     4.734000000     4.192000000    -0.165000000
H     5.070000000     3.297000000    -1.717000000
C     4.556000000     2.141000000    -0.045000000
C     4.730000000     0.884000000    -0.621000000
C     4.778000000    -0.215000000     0.191000000
H     4.758000000    -1.250000000    -0.141000000
C     4.531000000    -0.175000000     1.556000000
O     4.382000000    -1.351000000     2.172000000
C     3.071000000    -1.724000000     2.574000000
H     2.324000000    -1.318000000     1.875000000
C     2.932000000    -3.272000000     2.527000000
C     1.950000000    -3.947000000     3.246000000
H     1.354000000    -3.317000000     3.901000000
C     3.729000000    -4.033000000     1.600000000
H     4.486000000    -3.519000000     1.012000000
C     3.579000000    -5.389000000     1.542000000
O     4.342000000    -6.129000000     0.671000000
C     2.604000000    -6.088000000     2.336000000
H     2.581000000    -7.174000000     2.291000000
C     1.727000000    -5.298000000     3.121000000
O     0.826000000    -5.875000000     3.930000000
C    -0.259000000    -5.163000000     4.416000000
C    -1.385000000    -4.862000000     3.612000000
H    -1.476000000    -5.319000000     2.630000000
C    -0.164000000    -4.753000000     5.719000000
H     0.703000000    -5.049000000     6.306000000
C    -1.233000000    -3.996000000     6.216000000
H    -1.118000000    -3.676000000     7.248000000
C    -2.371000000    -3.708000000     5.485000000
H    -3.145000000    -3.108000000     5.957000000
C    -2.392000000    -4.121000000     4.140000000
O    -3.496000000    -3.817000000     3.375000000
C    -3.930000000    -2.502000000     3.074000000
C    -5.177000000    -2.234000000     2.629000000
H    -5.866000000    -3.057000000     2.455000000
C    -5.542000000    -0.888000000     2.417000000
O    -6.737000000    -0.438000000     1.824000000
C    -6.794000000     0.358000000     0.717000000
C    -6.232000000     0.050000000    -0.471000000
H    -5.383000000    -0.628000000    -0.504000000
C    -7.839000000     1.255000000     0.774000000
H    -8.319000000     1.492000000     1.720000000
C    -8.231000000     1.950000000    -0.341000000
H    -9.023000000     2.686000000    -0.235000000
C    -7.626000000     1.724000000    -1.567000000
H    -8.015000000     2.307000000    -2.398000000
C    -6.629000000     0.746000000    -1.583000000
O    -5.945000000     0.563000000    -2.821000000
C    -4.810000000     1.237000000    -3.230000000
C    -4.350000000     1.104000000    -4.537000000
H    -4.826000000     0.439000000    -5.253000000
C    -3.319000000     1.927000000    -4.950000000
O    -2.848000000     1.780000000    -6.230000000
C    -1.502000000     1.526000000    -6.646000000
C    -0.923000000     0.293000000    -6.359000000
H    -1.330000000    -0.489000000    -5.723000000
C    -0.853000000     2.422000000    -7.434000000
H    -1.315000000     3.358000000    -7.739000000
C     0.417000000     2.197000000    -7.916000000
H     0.990000000     2.898000000    -8.518000000
C     1.070000000     1.028000000    -7.560000000
H     2.110000000     0.815000000    -7.793000000
C     0.397000000     0.069000000    -6.879000000
O     1.141000000    -1.052000000    -6.600000000
C     1.707000000    -1.282000000    -5.371000000
C     1.796000000    -2.640000000    -4.937000000
H     1.386000000    -3.489000000    -5.478000000
C     2.300000000    -2.826000000    -3.666000000
O     2.218000000    -4.083000000    -3.133000000
C     3.240000000    -4.765000000    -2.553000000
C     4.339000000    -5.139000000    -3.318000000
H     4.330000000    -4.811000000    -4.355000000
C     5.466000000    -5.725000000    -2.776000000
H     6.373000000    -5.915000000    -3.343000000
C     5.485000000    -6.044000000    -1.407000000
H     6.274000000    -6.575000000    -0.881000000
C     4.312000000    -5.696000000    -0.665000000
C     3.253000000    -5.040000000    -1.205000000
H     2.363000000    -4.832000000    -0.616000000
O     0.553000000    -8.723000000    -3.642000000
H     0.579000000    -8.388000000    -4.539000000
H     1.452000000    -8.629000000    -3.326000000
O    -3.119000000    -5.360000000    -1.828000000
H    -2.359000000    -5.041000000    -2.314000000
H    -2.764000000    -5.638000000    -0.983000000
O     2.257000000    -8.489000000    -0.510000000
H     2.251000000    -9.186000000    -1.167000000
H     1.707000000    -7.802000000    -0.886000000
O     1.218000000    -4.114000000    -8.297000000
H     0.265000000    -4.030000000    -8.299000000
H     1.529000000    -3.329000000    -8.748000000
O    -3.959000000    -2.608000000    -1.358000000
H    -3.794000000    -3.273000000    -2.026000000
H    -3.091000000    -2.277000000    -1.129000000
O    -1.840000000    -7.075000000    -0.044000000
H    -1.085000000    -6.964000000     0.535000000
H    -2.493000000    -7.519000000     0.497000000
O    -2.639000000    -1.333000000    -8.686000000
H    -3.453000000    -1.427000000    -8.191000000
H    -2.893000000    -0.854000000    -9.475000000
O    -2.656000000    -7.447000000    -3.573000000
H    -2.695000000    -7.398000000    -2.618000000
H    -3.356000000    -6.866000000    -3.871000000
O    -0.546000000    -5.817000000    -5.445000000
H    -0.483000000    -4.992000000    -5.928000000
H    -0.752000000    -5.554000000    -4.548000000
O    -5.516000000    -6.934000000    -2.097000000
H    -4.747000000    -6.368000000    -2.168000000
H    -6.148000000    -6.416000000    -1.598000000
O    -4.802000000    -1.456000000    -6.946000000
H    -4.587000000    -1.449000000    -6.013000000
H    -5.759000000    -1.469000000    -6.971000000
O     0.377000000    -6.510000000    -1.532000000
H     0.265000000    -6.511000000    -2.482000000
H    -0.501000000    -6.679000000    -1.188000000
O    -7.160000000    -3.865000000    -4.724000000
H    -6.301000000    -3.759000000    -5.132000000
H    -7.218000000    -3.146000000    -4.096000000
O    -6.707000000    -3.029000000    -0.181000000
H    -7.189000000    -2.437000000    -0.759000000
H    -5.794000000    -2.942000000    -0.457000000
O     0.434000000    -8.067000000    -6.484000000
H     0.782000000    -7.758000000    -7.320000000
H    -0.103000000    -7.341000000    -6.166000000
O    -4.620000000    -1.918000000    -4.505000000
H    -3.700000000    -2.109000000    -4.321000000
H    -4.937000000    -1.481000000    -3.715000000
O    -5.533000000    -6.188000000    -6.569000000
H    -5.014000000    -6.143000000    -7.372000000
H    -5.083000000    -5.604000000    -5.959000000
O    -3.625000000    -4.908000000    -4.935000000
H    -2.904000000    -4.870000000    -5.563000000
H    -3.255000000    -4.558000000    -4.124000000
O    -1.427000000    -3.475000000    -6.562000000
H    -1.661000000    -3.239000000    -5.665000000
H    -1.645000000    -2.700000000    -7.079000000
