201
-1187.63307
C    -4.919000000     1.425000000     1.828000000
H    -4.876000000     2.454000000     1.481000000
C    -3.841000000     0.895000000     2.484000000
C    -3.837000000    -0.452000000     2.746000000
H    -2.950000000    -0.859000000     3.224000000
C    -2.719000000     1.745000000     3.055000000
O    -3.037000000     3.181000000     2.900000000
H    -1.905000000     1.574000000     2.335000000
O    -2.224000000     1.370000000     4.371000000
C    -0.827000000     1.236000000     4.397000000
C    -0.312000000    -0.040000000     4.463000000
H    -0.945000000    -0.907000000     4.633000000
C     0.997000000    -0.310000000     4.441000000
O     1.449000000    -1.560000000     4.342000000
C     1.852000000     0.785000000     4.247000000
C     3.379000000     0.735000000     4.192000000
H     3.853000000     1.702000000     4.376000000
C     3.905000000     0.381000000     2.799000000
C     4.320000000     1.476000000     2.047000000
H     4.363000000     2.467000000     2.490000000
H     3.629000000     0.064000000     5.016000000
C     1.361000000     2.096000000     4.145000000
H     1.988000000     2.967000000     3.974000000
C     0.000000000     2.335000000     4.248000000
C    -0.498000000     3.726000000     4.187000000
H     0.288000000     4.390000000     4.551000000
H    -1.353000000     3.944000000     4.830000000
C    -0.792000000     4.077000000     2.695000000
C     0.263000000     4.592000000     1.870000000
H     1.250000000     4.716000000     2.309000000
C    -2.075000000     3.853000000     2.113000000
C    -2.243000000     4.093000000     0.736000000
H    -3.197000000     3.999000000     0.225000000
C    -1.200000000     4.613000000    -0.029000000
O    -1.430000000     4.634000000    -1.350000000
C    -0.785000000     3.507000000    -2.170000000
C    -1.694000000     2.642000000    -2.983000000
C    -1.124000000     1.515000000    -3.573000000
H    -0.040000000     1.443000000    -3.521000000
C    -3.061000000     2.762000000    -2.936000000
H    -3.539000000     3.636000000    -2.501000000
O     0.316000000     4.029000000    -2.886000000
H    -0.334000000     2.873000000    -1.392000000
C     0.036000000     4.806000000     0.495000000
C     1.055000000     5.423000000    -0.318000000
H     1.622000000     6.163000000     0.250000000
H     0.597000000     6.056000000    -1.082000000
C     1.920000000     4.414000000    -1.012000000
C     3.187000000     4.055000000    -0.429000000
H     3.590000000     4.459000000     0.497000000
C     1.565000000     3.894000000    -2.270000000
C     2.356000000     2.883000000    -2.810000000
H     2.105000000     2.416000000    -3.759000000
C     3.481000000     2.403000000    -2.212000000
O     4.018000000     1.260000000    -2.793000000
C     3.857000000    -0.048000000    -2.171000000
C     3.808000000    -1.136000000    -3.196000000
C     3.595000000    -0.907000000    -4.592000000
H     3.636000000     0.117000000    -4.956000000
C     3.844000000    -2.478000000    -2.861000000
H     4.004000000    -2.595000000    -1.793000000
O     4.887000000    -0.265000000    -1.208000000
H     2.946000000    -0.049000000    -1.554000000
C     3.871000000     3.017000000    -1.013000000
C     5.018000000     2.458000000    -0.173000000
H     5.471000000     3.202000000     0.485000000
H     5.792000000     2.183000000    -0.893000000
C     4.651000000     1.228000000     0.700000000
C     4.632000000    -0.064000000     0.109000000
C     4.268000000    -1.111000000     0.881000000
H     4.231000000    -2.102000000     0.436000000
C     3.941000000    -0.908000000     2.238000000
O     3.400000000    -1.943000000     2.975000000
C     1.948000000    -1.976000000     3.108000000
H     1.451000000    -1.377000000     2.330000000
C     1.462000000    -3.395000000     2.888000000
C     0.297000000    -3.808000000     3.501000000
H    -0.153000000    -3.098000000     4.190000000
C     2.142000000    -4.268000000     2.107000000
H     2.904000000    -3.824000000     1.472000000
C     1.661000000    -5.547000000     1.949000000
O     2.168000000    -6.412000000     1.036000000
C     0.567000000    -5.974000000     2.664000000
H     0.176000000    -6.968000000     2.464000000
C    -0.247000000    -5.078000000     3.376000000
O    -1.506000000    -5.445000000     3.833000000
C    -2.448000000    -4.688000000     4.280000000
C    -3.271000000    -4.127000000     3.391000000
H    -3.465000000    -4.388000000     2.353000000
C    -2.485000000    -4.315000000     5.607000000
H    -1.824000000    -4.842000000     6.290000000
C    -3.385000000    -3.348000000     6.028000000
H    -3.408000000    -3.130000000     7.092000000
C    -4.199000000    -2.756000000     5.119000000
H    -4.974000000    -2.023000000     5.327000000
C    -4.188000000    -3.167000000     3.827000000
O    -5.056000000    -2.615000000     2.876000000
C    -4.999000000    -1.244000000     2.645000000
C    -6.037000000    -0.761000000     1.868000000
H    -6.903000000    -1.376000000     1.636000000
C    -6.031000000     0.572000000     1.502000000
O    -7.094000000     0.987000000     0.731000000
C    -6.981000000     1.878000000    -0.342000000
C    -6.032000000     1.637000000    -1.423000000
H    -5.395000000     0.759000000    -1.349000000
C    -7.829000000     2.939000000    -0.497000000
H    -8.536000000     3.193000000     0.289000000
C    -7.854000000     3.791000000    -1.590000000
H    -8.693000000     4.471000000    -1.716000000
C    -7.011000000     3.437000000    -2.674000000
H    -6.984000000     4.078000000    -3.552000000
C    -6.062000000     2.467000000    -2.521000000
O    -5.260000000     2.095000000    -3.658000000
C    -3.918000000     1.844000000    -3.586000000
C    -3.347000000     0.789000000    -4.257000000
H    -4.058000000     0.102000000    -4.709000000
C    -1.937000000     0.622000000    -4.282000000
O    -1.468000000    -0.429000000    -4.969000000
C    -0.477000000    -0.317000000    -5.943000000
C     0.717000000    -1.040000000    -5.869000000
H     0.851000000    -1.820000000    -5.123000000
C    -0.598000000     0.665000000    -6.975000000
H    -1.359000000     1.435000000    -6.874000000
C     0.424000000     0.749000000    -7.939000000
H     0.206000000     1.468000000    -8.724000000
C     1.534000000    -0.001000000    -7.872000000
H     2.265000000    -0.033000000    -8.676000000
C     1.678000000    -0.866000000    -6.820000000
O     2.818000000    -1.667000000    -6.727000000
C     3.323000000    -2.014000000    -5.449000000
C     3.447000000    -3.305000000    -5.061000000
H     3.081000000    -4.037000000    -5.776000000
C     3.717000000    -3.587000000    -3.740000000
O     3.649000000    -4.906000000    -3.315000000
C     3.847000000    -5.269000000    -2.003000000
C     5.162000000    -5.247000000    -1.525000000
H     6.032000000    -5.074000000    -2.153000000
C     5.452000000    -5.657000000    -0.251000000
H     6.488000000    -5.548000000     0.059000000
C     4.475000000    -6.032000000     0.620000000
H     4.745000000    -6.211000000     1.658000000
C     3.183000000    -6.043000000     0.204000000
C     2.866000000    -5.749000000    -1.165000000
H     1.859000000    -5.837000000    -1.563000000
O    -2.841000000    -9.497000000    -3.346000000
H    -2.390000000    -9.950000000    -2.634000000
H    -2.553000000    -8.587000000    -3.271000000
O    -4.663000000    -9.266000000     0.271000000
H    -4.063000000    -8.531000000     0.141000000
H    -5.436000000    -9.038000000    -0.246000000
O    -1.462000000    -3.876000000    -6.316000000
H    -2.277000000    -3.464000000    -6.605000000
H    -0.946000000    -3.972000000    -7.117000000
O    -1.854000000    -6.998000000    -3.581000000
H    -2.467000000    -6.707000000    -4.257000000
H    -1.462000000    -6.190000000    -3.250000000
O     1.726000000    -6.117000000    -6.926000000
H     1.017000000    -5.983000000    -7.555000000
H     1.355000000    -5.849000000    -6.085000000
O    -1.163000000   -10.795000000    -1.672000000
H    -0.284000000   -10.814000000    -2.049000000
H    -1.230000000    -9.931000000    -1.265000000
O    -6.837000000    -4.356000000     1.132000000
H    -6.139000000    -3.826000000     0.747000000
H    -7.445000000    -4.514000000     0.410000000
O    -4.428000000    -5.281000000    -2.203000000
H    -4.507000000    -4.366000000    -1.933000000
H    -3.536000000    -5.527000000    -1.956000000
O    -4.315000000    -3.322000000    -0.024000000
H    -3.773000000    -2.613000000     0.322000000
H    -3.709000000    -4.055000000    -0.133000000
O    -2.807000000    -8.110000000     3.116000000
H    -3.236000000    -7.564000000     2.457000000
H    -2.530000000    -8.891000000     2.636000000
O    -3.061000000    -7.104000000     0.439000000
H    -2.245000000    -7.602000000     0.382000000
H    -2.876000000    -6.287000000    -0.024000000
O    -5.423000000    -6.602000000    -4.243000000
H    -5.047000000    -6.511000000    -3.367000000
H    -4.983000000    -5.930000000    -4.764000000
O    -0.641000000    -7.956000000    -1.117000000
H    -0.914000000    -7.209000000    -1.651000000
H     0.248000000    -8.150000000    -1.415000000
O    -2.917000000    -3.040000000    -3.719000000
H    -2.299000000    -3.608000000    -3.259000000
H    -2.365000000    -2.474000000    -4.258000000
O     0.309000000    -8.469000000    -5.122000000
H    -0.071000000    -7.889000000    -4.463000000
H     0.931000000    -9.010000000    -4.635000000
O     0.316000000    -5.193000000    -4.834000000
H     0.052000000    -4.902000000    -3.962000000
H    -0.392000000    -4.902000000    -5.409000000
O    -4.219000000    -3.338000000    -6.542000000
H    -4.300000000    -4.174000000    -7.002000000
H    -4.664000000    -3.481000000    -5.706000000
O    -5.600000000    -6.979000000     2.003000000
H    -4.876000000    -6.903000000     1.381000000
H    -6.243000000    -6.336000000     1.701000000
O    -4.859000000    -1.646000000    -2.291000000
H    -4.822000000    -2.138000000    -1.471000000
H    -4.151000000    -2.010000000    -2.822000000
