201
-1245.34397
C    -4.589000000     1.739000000     0.543000000
H    -3.910000000     2.228000000    -0.151000000
C    -4.212000000     1.683000000     1.851000000
C    -4.767000000     0.776000000     2.708000000
H    -4.368000000     0.698000000     3.716000000
C    -2.918000000     2.449000000     2.211000000
O    -2.895000000     3.819000000     1.674000000
H    -2.113000000     1.964000000     1.640000000
O    -2.618000000     2.478000000     3.609000000
C    -1.355000000     2.174000000     4.012000000
C    -1.063000000     0.892000000     4.460000000
H    -1.786000000     0.086000000     4.559000000
C     0.275000000     0.462000000     4.569000000
O     0.575000000    -0.827000000     4.907000000
C     1.310000000     1.447000000     4.477000000
C     2.771000000     1.052000000     4.739000000
H     3.369000000     1.907000000     5.062000000
C     3.326000000     0.500000000     3.439000000
C     4.070000000     1.257000000     2.541000000
H     4.170000000     2.322000000     2.735000000
H     2.762000000     0.248000000     5.478000000
C     1.001000000     2.768000000     4.034000000
H     1.797000000     3.504000000     3.958000000
C    -0.313000000     3.119000000     3.876000000
C    -0.668000000     4.575000000     3.445000000
H     0.006000000     5.223000000     4.009000000
H    -1.603000000     4.814000000     3.957000000
C    -0.591000000     4.750000000     1.901000000
C     0.603000000     4.982000000     1.254000000
H     1.449000000     5.279000000     1.869000000
C    -1.689000000     4.277000000     1.126000000
C    -1.532000000     4.083000000    -0.231000000
H    -2.425000000     3.763000000    -0.763000000
C    -0.354000000     4.373000000    -0.910000000
O    -0.437000000     4.316000000    -2.283000000
C     0.173000000     3.188000000    -2.952000000
C    -0.640000000     2.546000000    -4.078000000
C    -0.149000000     1.427000000    -4.818000000
H     0.918000000     1.239000000    -4.735000000
C    -1.939000000     2.976000000    -4.230000000
H    -2.364000000     3.803000000    -3.666000000
O     1.560000000     3.487000000    -3.425000000
H     0.233000000     2.343000000    -2.250000000
C     0.708000000     4.827000000    -0.168000000
C     1.995000000     5.148000000    -0.995000000
H     2.599000000     5.705000000    -0.276000000
H     1.698000000     5.756000000    -1.853000000
C     2.837000000     3.917000000    -1.356000000
C     3.758000000     3.419000000    -0.396000000
H     3.815000000     3.841000000     0.604000000
C     2.596000000     3.157000000    -2.580000000
C     3.243000000     1.945000000    -2.742000000
H     3.008000000     1.303000000    -3.587000000
C     4.121000000     1.452000000    -1.735000000
O     4.682000000     0.170000000    -1.883000000
C     4.028000000    -0.955000000    -1.139000000
C     3.956000000    -2.238000000    -1.972000000
C     3.585000000    -2.143000000    -3.291000000
H     3.305000000    -1.151000000    -3.635000000
C     4.217000000    -3.507000000    -1.446000000
H     4.543000000    -3.644000000    -0.418000000
O     4.843000000    -1.212000000     0.017000000
H     3.080000000    -0.576000000    -0.729000000
C     4.421000000     2.224000000    -0.614000000
C     5.280000000     1.613000000     0.394000000
H     5.782000000     2.419000000     0.933000000
H     6.054000000     1.077000000    -0.159000000
C     4.635000000     0.685000000     1.428000000
C     4.444000000    -0.707000000     1.182000000
C     3.728000000    -1.503000000     2.000000000
H     3.467000000    -2.504000000     1.669000000
C     3.106000000    -0.875000000     3.100000000
O     2.312000000    -1.770000000     3.788000000
C     0.921000000    -1.618000000     3.732000000
H     0.578000000    -1.063000000     2.846000000
C     0.177000000    -2.905000000     3.432000000
C    -1.031000000    -3.158000000     4.084000000
H    -1.414000000    -2.368000000     4.725000000
C     0.605000000    -3.760000000     2.434000000
H     1.550000000    -3.559000000     1.936000000
C    -0.188000000    -4.898000000     2.120000000
O     0.131000000    -5.732000000     1.136000000
C    -1.370000000    -5.190000000     2.824000000
H    -1.936000000    -6.083000000     2.570000000
C    -1.837000000    -4.221000000     3.725000000
O    -3.111000000    -4.405000000     4.262000000
C    -3.786000000    -3.267000000     4.644000000
C    -4.569000000    -2.581000000     3.733000000
H    -4.523000000    -3.003000000     2.733000000
C    -3.682000000    -2.778000000     5.966000000
H    -3.026000000    -3.228000000     6.707000000
C    -4.569000000    -1.769000000     6.381000000
H    -4.444000000    -1.362000000     7.381000000
C    -5.449000000    -1.150000000     5.512000000
H    -6.015000000    -0.300000000     5.885000000
C    -5.460000000    -1.661000000     4.191000000
O    -6.174000000    -1.084000000     3.173000000
C    -5.704000000    -0.170000000     2.231000000
C    -6.131000000    -0.133000000     0.896000000
H    -6.679000000    -0.970000000     0.471000000
C    -5.565000000     0.834000000     0.059000000
O    -5.795000000     0.730000000    -1.282000000
C    -5.761000000     1.845000000    -2.163000000
C    -4.972000000     1.833000000    -3.312000000
H    -4.443000000     0.901000000    -3.491000000
C    -6.427000000     3.026000000    -1.818000000
H    -6.928000000     3.204000000    -0.870000000
C    -6.324000000     4.186000000    -2.603000000
H    -6.799000000     5.090000000    -2.229000000
C    -5.566000000     4.120000000    -3.814000000
H    -5.492000000     4.941000000    -4.523000000
C    -4.842000000     2.939000000    -4.110000000
O    -4.016000000     2.894000000    -5.211000000
C    -2.792000000     2.311000000    -5.086000000
C    -2.326000000     1.202000000    -5.830000000
H    -2.987000000     0.597000000    -6.446000000
C    -1.067000000     0.742000000    -5.644000000
O    -0.655000000    -0.272000000    -6.467000000
C     0.653000000    -0.671000000    -6.604000000
C     1.155000000    -1.667000000    -5.726000000
H     0.483000000    -2.197000000    -5.055000000
C     1.428000000    -0.158000000    -7.628000000
H     1.036000000     0.671000000    -8.212000000
C     2.782000000    -0.562000000    -7.846000000
H     3.400000000    -0.165000000    -8.648000000
C     3.212000000    -1.628000000    -7.041000000
H     4.221000000    -1.993000000    -7.217000000
C     2.412000000    -2.158000000    -6.008000000
O     2.883000000    -3.205000000    -5.294000000
C     3.505000000    -3.260000000    -4.102000000
C     3.765000000    -4.493000000    -3.595000000
H     3.579000000    -5.370000000    -4.210000000
C     3.979000000    -4.626000000    -2.241000000
O     4.048000000    -5.937000000    -1.709000000
C     3.407000000    -6.200000000    -0.509000000
C     4.048000000    -7.046000000     0.412000000
H     5.044000000    -7.410000000     0.173000000
C     3.386000000    -7.377000000     1.639000000
H     3.961000000    -7.982000000     2.335000000
C     2.079000000    -6.930000000     1.872000000
H     1.538000000    -7.132000000     2.793000000
C     1.390000000    -6.183000000     0.908000000
C     2.058000000    -5.815000000    -0.276000000
H     1.520000000    -5.255000000    -1.037000000
O    -5.414000000    -6.921000000    -2.789000000
H    -4.816000000    -6.689000000    -2.079000000
H    -5.713000000    -7.804000000    -2.572000000
O    -1.518000000    -4.270000000    -7.641000000
H    -2.136000000    -4.998000000    -7.707000000
H    -1.186000000    -4.318000000    -6.744000000
O    -2.130000000    -6.708000000    -0.188000000
H    -2.303000000    -5.868000000    -0.613000000
H    -1.201000000    -6.676000000     0.038000000
O    -1.023000000    -4.782000000    -4.837000000
H    -0.646000000    -4.566000000    -3.985000000
H    -1.069000000    -5.738000000    -4.844000000
O    -1.608000000    -7.554000000    -4.594000000
H    -2.181000000    -8.076000000    -4.032000000
H    -1.900000000    -7.752000000    -5.484000000
O    -4.240000000    -3.547000000    -5.779000000
H    -4.275000000    -4.291000000    -5.179000000
H    -3.811000000    -2.854000000    -5.278000000
O    -4.076000000    -2.155000000    -1.478000000
H    -3.702000000    -2.058000000    -2.353000000
H    -3.769000000    -3.011000000    -1.179000000
O    -4.999000000    -5.090000000     0.019000000
H    -5.028000000    -6.037000000    -0.116000000
H    -4.145000000    -4.825000000    -0.322000000
O    -7.104000000    -4.813000000    -4.190000000
H    -7.215000000    -3.949000000    -3.793000000
H    -6.406000000    -5.223000000    -3.679000000
O    -3.502000000    -4.800000000    -3.310000000
H    -3.150000000    -4.626000000    -2.437000000
H    -2.732000000    -4.832000000    -3.877000000
O     2.418000000    -8.778000000    -2.505000000
H     2.428000000    -9.380000000    -1.761000000
H     1.900000000    -8.032000000    -2.203000000
O    -0.204000000    -9.130000000    -0.339000000
H     0.718000000    -9.376000000    -0.418000000
H    -0.293000000    -8.353000000    -0.891000000
O    -2.574000000    -1.876000000    -4.020000000
H    -2.230000000    -1.001000000    -4.198000000
H    -2.030000000    -2.460000000    -4.549000000
O     0.047000000    -6.965000000    -2.362000000
H    -0.289000000    -6.069000000    -2.343000000
H    -0.495000000    -7.411000000    -3.012000000
O    -4.578000000    -7.660000000    -0.021000000
H    -3.634000000    -7.518000000     0.051000000
H    -4.708000000    -8.561000000     0.276000000
O    -4.689000000    -7.021000000    -5.463000000
H    -4.376000000    -7.924000000    -5.531000000
H    -4.738000000    -6.854000000    -4.522000000
O    -5.253000000    -6.024000000     2.650000000
H    -5.002000000    -5.853000000     1.742000000
H    -4.530000000    -5.673000000     3.169000000
O    -7.397000000    -3.650000000     0.451000000
H    -6.538000000    -4.071000000     0.397000000
H    -7.703000000    -3.613000000    -0.454000000
O    -6.409000000    -2.185000000    -2.849000000
H    -5.959000000    -2.036000000    -3.681000000
H    -5.728000000    -2.076000000    -2.186000000
