201
-1232.79567
C    -5.128000000     1.843000000     0.569000000
H    -4.669000000     2.400000000    -0.243000000
C    -4.583000000     1.861000000     1.831000000
C    -5.134000000     1.080000000     2.846000000
H    -4.655000000     0.972000000     3.816000000
C    -3.276000000     2.601000000     1.989000000
O    -3.271000000     3.917000000     1.437000000
H    -2.476000000     2.053000000     1.470000000
O    -2.854000000     2.633000000     3.424000000
C    -1.549000000     2.454000000     3.715000000
C    -1.150000000     1.210000000     4.154000000
H    -1.882000000     0.407000000     4.190000000
C     0.177000000     0.911000000     4.297000000
O     0.481000000    -0.362000000     4.705000000
C     1.187000000     1.909000000     4.246000000
C     2.653000000     1.514000000     4.500000000
H     3.266000000     2.413000000     4.587000000
C     3.227000000     0.796000000     3.276000000
C     4.001000000     1.626000000     2.519000000
H     4.118000000     2.683000000     2.743000000
H     2.723000000     0.971000000     5.445000000
C     0.756000000     3.141000000     3.774000000
H     1.526000000     3.880000000     3.567000000
C    -0.566000000     3.474000000     3.505000000
C    -0.980000000     4.782000000     2.939000000
H    -0.286000000     5.575000000     3.222000000
H    -1.926000000     5.069000000     3.405000000
C    -0.986000000     4.690000000     1.459000000
C     0.198000000     5.120000000     0.811000000
H     1.048000000     5.492000000     1.377000000
C    -2.128000000     4.373000000     0.775000000
C    -1.924000000     4.190000000    -0.619000000
H    -2.756000000     3.965000000    -1.281000000
C    -0.687000000     4.323000000    -1.286000000
O    -0.679000000     3.960000000    -2.605000000
C     0.174000000     2.804000000    -2.945000000
C    -0.364000000     1.949000000    -4.048000000
C     0.402000000     1.289000000    -5.091000000
H     1.454000000     1.508000000    -5.250000000
C    -1.740000000     1.736000000    -3.988000000
H    -2.410000000     2.166000000    -3.249000000
O     1.445000000     3.216000000    -3.387000000
H     0.188000000     2.231000000    -2.007000000
C     0.387000000     4.853000000    -0.548000000
C     1.697000000     5.140000000    -1.193000000
H     2.173000000     5.871000000    -0.537000000
H     1.485000000     5.601000000    -2.160000000
C     2.569000000     3.888000000    -1.445000000
C     3.573000000     3.579000000    -0.523000000
H     3.699000000     4.200000000     0.360000000
C     2.458000000     3.068000000    -2.501000000
C     3.325000000     2.022000000    -2.752000000
H     3.179000000     1.357000000    -3.599000000
C     4.289000000     1.684000000    -1.837000000
O     4.781000000     0.384000000    -2.016000000
C     4.278000000    -0.634000000    -1.214000000
C     4.218000000    -2.026000000    -1.888000000
C     3.582000000    -2.224000000    -3.105000000
H     3.347000000    -1.344000000    -3.699000000
C     4.439000000    -3.149000000    -1.067000000
H     4.884000000    -2.986000000    -0.089000000
O     5.058000000    -0.751000000    -0.001000000
H     3.241000000    -0.331000000    -1.007000000
C     4.415000000     2.462000000    -0.720000000
C     5.311000000     2.121000000     0.423000000
H     5.671000000     3.050000000     0.870000000
H     6.217000000     1.593000000     0.120000000
C     4.596000000     1.136000000     1.375000000
C     4.530000000    -0.234000000     1.109000000
C     3.866000000    -1.106000000     1.951000000
H     3.688000000    -2.156000000     1.735000000
C     3.205000000    -0.590000000     3.056000000
O     2.374000000    -1.463000000     3.737000000
C     0.980000000    -1.245000000     3.602000000
H     0.730000000    -0.716000000     2.671000000
C     0.174000000    -2.570000000     3.579000000
C    -1.157000000    -2.678000000     4.066000000
H    -1.545000000    -1.748000000     4.472000000
C     0.709000000    -3.633000000     2.830000000
H     1.743000000    -3.617000000     2.495000000
C    -0.039000000    -4.794000000     2.603000000
O     0.371000000    -5.625000000     1.622000000
C    -1.386000000    -4.856000000     3.043000000
H    -1.917000000    -5.769000000     2.786000000
C    -1.924000000    -3.844000000     3.784000000
O    -3.294000000    -3.944000000     4.093000000
C    -4.045000000    -2.872000000     4.563000000
C    -4.880000000    -2.212000000     3.672000000
H    -4.901000000    -2.337000000     2.592000000
C    -3.878000000    -2.455000000     5.827000000
H    -3.222000000    -2.952000000     6.538000000
C    -4.656000000    -1.403000000     6.315000000
H    -4.440000000    -1.123000000     7.343000000
C    -5.732000000    -0.838000000     5.511000000
H    -6.400000000    -0.085000000     5.919000000
C    -5.768000000    -1.255000000     4.179000000
O    -6.702000000    -0.581000000     3.419000000
C    -6.319000000     0.381000000     2.605000000
C    -6.907000000     0.436000000     1.359000000
H    -7.707000000    -0.236000000     1.062000000
C    -6.291000000     1.125000000     0.305000000
O    -6.882000000     1.243000000    -0.934000000
C    -6.149000000     1.641000000    -2.052000000
C    -5.258000000     0.851000000    -2.810000000
H    -5.031000000    -0.154000000    -2.465000000
C    -6.357000000     2.935000000    -2.473000000
H    -6.979000000     3.614000000    -1.895000000
C    -5.723000000     3.479000000    -3.572000000
H    -6.012000000     4.478000000    -3.888000000
C    -4.906000000     2.677000000    -4.339000000
H    -4.440000000     3.048000000    -5.249000000
C    -4.611000000     1.370000000    -3.912000000
O    -3.769000000     0.569000000    -4.648000000
C    -2.400000000     0.772000000    -4.818000000
C    -1.662000000     0.049000000    -5.746000000
H    -2.119000000    -0.725000000    -6.357000000
C    -0.283000000     0.380000000    -5.943000000
O     0.354000000    -0.225000000    -6.983000000
C     1.520000000    -0.965000000    -6.812000000
C     1.668000000    -1.920000000    -5.808000000
H     0.971000000    -2.015000000    -4.979000000
C     2.479000000    -0.841000000    -7.782000000
H     2.485000000     0.012000000    -8.456000000
C     3.539000000    -1.683000000    -7.844000000
H     4.326000000    -1.580000000    -8.587000000
C     3.703000000    -2.641000000    -6.854000000
H     4.526000000    -3.352000000    -6.858000000
C     2.741000000    -2.773000000    -5.807000000
O     2.739000000    -3.733000000    -4.855000000
C     3.165000000    -3.496000000    -3.570000000
C     3.429000000    -4.620000000    -2.737000000
H     3.019000000    -5.608000000    -2.932000000
C     4.078000000    -4.428000000    -1.523000000
O     4.460000000    -5.496000000    -0.806000000
C     3.676000000    -5.935000000     0.237000000
C     4.248000000    -6.945000000     1.035000000
H     5.279000000    -7.209000000     0.812000000
C     3.516000000    -7.533000000     2.128000000
H     3.844000000    -8.348000000     2.769000000
C     2.255000000    -7.002000000     2.374000000
H     1.637000000    -7.515000000     3.107000000
C     1.686000000    -6.041000000     1.502000000
C     2.315000000    -5.645000000     0.378000000
H     1.810000000    -5.016000000    -0.351000000
O    -3.263000000    -7.776000000    -1.050000000
H    -2.836000000    -7.059000000    -1.519000000
H    -2.720000000    -7.910000000    -0.273000000
O    -1.442000000    -3.973000000    -3.659000000
H    -1.334000000    -4.424000000    -2.822000000
H    -0.829000000    -4.413000000    -4.248000000
O    -1.457000000    -7.853000000    -3.632000000
H    -2.413000000    -7.807000000    -3.638000000
H    -1.239000000    -8.378000000    -4.402000000
O    -3.905000000    -7.729000000     4.075000000
H    -4.418000000    -7.156000000     3.505000000
H    -3.795000000    -7.227000000     4.883000000
O    -3.284000000    -3.776000000    -6.254000000
H    -2.845000000    -3.152000000    -6.832000000
H    -2.580000000    -4.149000000    -5.724000000
O    -5.209000000    -2.640000000    -4.398000000
H    -4.904000000    -3.285000000    -5.036000000
H    -4.428000000    -2.413000000    -3.894000000
O    -5.015000000    -2.883000000    -0.551000000
H    -4.631000000    -2.495000000    -1.337000000
H    -4.393000000    -3.564000000    -0.293000000
O    -1.556000000   -10.558000000    -1.579000000
H    -1.775000000    -9.701000000    -1.212000000
H    -0.968000000   -10.951000000    -0.934000000
O    -5.034000000    -6.359000000     1.052000000
H    -4.917000000    -7.046000000     0.396000000
H    -4.328000000    -5.737000000     0.877000000
O    -6.685000000    -5.996000000    -3.517000000
H    -6.793000000    -5.812000000    -4.450000000
H    -5.741000000    -5.930000000    -3.368000000
O    -4.007000000    -5.861000000    -3.342000000
H    -3.740000000    -5.638000000    -2.450000000
H    -3.316000000    -5.498000000    -3.896000000
O     2.266000000    -8.250000000    -1.872000000
H     2.365000000    -8.238000000    -0.919000000
H     1.680000000    -7.517000000    -2.061000000
O    -0.549000000    -8.261000000     0.412000000
H     0.090000000    -8.652000000    -0.184000000
H    -0.274000000    -7.348000000     0.492000000
O    -3.104000000    -1.970000000    -2.636000000
H    -2.601000000    -2.659000000    -3.071000000
H    -2.595000000    -1.760000000    -1.853000000
O     0.463000000    -6.392000000    -2.222000000
H    -0.174000000    -5.869000000    -1.735000000
H    -0.037000000    -6.763000000    -2.949000000
O    -5.377000000    -9.315000000    -2.195000000
H    -5.461000000    -9.376000000    -3.146000000
H    -4.627000000    -8.736000000    -2.057000000
O    -6.466000000    -5.645000000     3.275000000
H    -5.860000000    -5.765000000     2.544000000
H    -5.980000000    -5.112000000     3.904000000
O    -7.092000000    -3.559000000     0.882000000
H    -6.312000000    -3.155000000     0.503000000
H    -7.290000000    -4.291000000     0.299000000
O    -7.428000000    -2.700000000    -2.695000000
H    -6.961000000    -2.988000000    -3.480000000
H    -6.742000000    -2.582000000    -2.038000000
