201
-1262.41773
C    -4.791000000     2.061000000     0.611000000
H    -4.325000000     2.587000000    -0.219000000
C    -4.156000000     1.823000000     1.801000000
C    -4.808000000     0.935000000     2.686000000
H    -4.376000000     0.563000000     3.611000000
C    -2.831000000     2.465000000     2.116000000
O    -2.760000000     3.829000000     1.635000000
H    -2.029000000     1.848000000     1.685000000
O    -2.640000000     2.454000000     3.563000000
C    -1.367000000     2.129000000     3.939000000
C    -1.224000000     0.789000000     4.285000000
H    -2.097000000     0.143000000     4.237000000
C     0.113000000     0.376000000     4.548000000
O     0.299000000    -0.873000000     4.760000000
C     1.175000000     1.273000000     4.424000000
C     2.563000000     0.795000000     4.692000000
H     3.123000000     1.595000000     5.181000000
C     3.262000000     0.237000000     3.450000000
C     4.021000000     1.127000000     2.694000000
H     4.235000000     2.179000000     2.862000000
H     2.586000000     0.022000000     5.463000000
C     0.973000000     2.605000000     4.146000000
H     1.900000000     3.166000000     4.056000000
C    -0.315000000     3.068000000     3.846000000
C    -0.477000000     4.441000000     3.278000000
H     0.329000000     5.066000000     3.669000000
H    -1.357000000     4.842000000     3.785000000
C    -0.469000000     4.627000000     1.780000000
C     0.720000000     4.906000000     1.113000000
H     1.644000000     5.237000000     1.580000000
C    -1.624000000     4.314000000     1.047000000
C    -1.591000000     4.231000000    -0.339000000
H    -2.472000000     4.036000000    -0.945000000
C    -0.334000000     4.442000000    -1.002000000
O    -0.312000000     4.259000000    -2.357000000
C     0.390000000     3.141000000    -2.956000000
C    -0.500000000     2.683000000    -4.106000000
C     0.095000000     2.082000000    -5.211000000
H     1.167000000     2.223000000    -5.327000000
C    -1.845000000     2.443000000    -3.831000000
H    -2.340000000     3.027000000    -3.059000000
O     1.778000000     3.358000000    -3.268000000
H     0.204000000     2.317000000    -2.252000000
C     0.785000000     4.841000000    -0.268000000
C     2.176000000     5.043000000    -0.956000000
H     2.803000000     5.765000000    -0.429000000
H     2.162000000     5.561000000    -1.917000000
C     2.843000000     3.733000000    -1.110000000
C     3.690000000     3.113000000    -0.120000000
H     3.902000000     3.621000000     0.818000000
C     2.683000000     3.027000000    -2.316000000
C     3.427000000     1.911000000    -2.615000000
H     3.300000000     1.512000000    -3.618000000
C     4.180000000     1.296000000    -1.624000000
O     4.745000000     0.071000000    -1.889000000
C     4.078000000    -0.988000000    -1.044000000
C     3.881000000    -2.253000000    -1.912000000
C     3.284000000    -2.118000000    -3.211000000
H     3.192000000    -1.106000000    -3.598000000
C     4.020000000    -3.558000000    -1.381000000
H     4.427000000    -3.775000000    -0.397000000
O     4.954000000    -1.300000000     0.096000000
H     3.132000000    -0.533000000    -0.715000000
C     4.416000000     1.990000000    -0.444000000
C     5.365000000     1.428000000     0.552000000
H     5.898000000     2.241000000     1.050000000
H     6.133000000     0.835000000     0.052000000
C     4.676000000     0.608000000     1.556000000
C     4.472000000    -0.751000000     1.244000000
C     3.706000000    -1.593000000     2.002000000
H     3.509000000    -2.626000000     1.730000000
C     3.038000000    -1.130000000     3.101000000
O     2.196000000    -1.979000000     3.819000000
C     0.836000000    -1.626000000     3.672000000
H     0.716000000    -0.948000000     2.815000000
C     0.049000000    -2.934000000     3.400000000
C    -1.238000000    -3.141000000     3.891000000
H    -1.675000000    -2.438000000     4.595000000
C     0.534000000    -4.017000000     2.622000000
H     1.571000000    -4.003000000     2.296000000
C    -0.196000000    -5.235000000     2.413000000
O     0.300000000    -6.275000000     1.656000000
C    -1.483000000    -5.348000000     2.911000000
H    -2.094000000    -6.214000000     2.670000000
C    -2.003000000    -4.271000000     3.605000000
O    -3.291000000    -4.314000000     3.931000000
C    -4.147000000    -3.319000000     4.354000000
C    -4.906000000    -2.631000000     3.397000000
H    -4.885000000    -2.865000000     2.335000000
C    -4.099000000    -2.852000000     5.644000000
H    -3.409000000    -3.375000000     6.300000000
C    -4.822000000    -1.733000000     5.981000000
H    -4.864000000    -1.406000000     7.017000000
C    -5.771000000    -1.263000000     5.127000000
H    -6.382000000    -0.427000000     5.457000000
C    -5.755000000    -1.610000000     3.762000000
O    -6.483000000    -0.812000000     2.943000000
C    -5.998000000     0.316000000     2.323000000
C    -6.656000000     0.709000000     1.167000000
H    -7.592000000     0.223000000     0.902000000
C    -6.040000000     1.602000000     0.343000000
O    -6.739000000     2.044000000    -0.770000000
C    -6.158000000     2.566000000    -1.877000000
C    -5.303000000     1.797000000    -2.699000000
H    -5.183000000     0.738000000    -2.486000000
C    -6.451000000     3.859000000    -2.187000000
H    -7.136000000     4.397000000    -1.539000000
C    -5.831000000     4.490000000    -3.315000000
H    -6.075000000     5.510000000    -3.601000000
C    -4.952000000     3.773000000    -4.055000000
H    -4.495000000     4.221000000    -4.934000000
C    -4.618000000     2.420000000    -3.723000000
O    -3.911000000     1.523000000    -4.552000000
C    -2.560000000     1.691000000    -4.703000000
C    -2.014000000     1.126000000    -5.836000000
H    -2.618000000     0.466000000    -6.453000000
C    -0.654000000     1.304000000    -6.086000000
O    -0.059000000     0.617000000    -7.169000000
C     1.116000000    -0.113000000    -7.028000000
C     1.207000000    -1.235000000    -6.176000000
H     0.284000000    -1.619000000    -5.749000000
C     2.333000000     0.300000000    -7.583000000
H     2.347000000     1.200000000    -8.192000000
C     3.410000000    -0.559000000    -7.596000000
H     4.324000000    -0.239000000    -8.089000000
C     3.457000000    -1.719000000    -6.779000000
H     4.321000000    -2.367000000    -6.657000000
C     2.371000000    -1.941000000    -6.006000000
O     2.321000000    -3.065000000    -5.199000000
C     2.808000000    -3.219000000    -3.912000000
C     2.899000000    -4.525000000    -3.359000000
H     2.475000000    -5.394000000    -3.856000000
C     3.577000000    -4.680000000    -2.149000000
O     3.796000000    -5.972000000    -1.636000000
C     3.407000000    -6.176000000    -0.341000000
C     4.241000000    -6.930000000     0.494000000
H     5.211000000    -7.294000000     0.166000000
C     3.810000000    -7.453000000     1.707000000
H     4.480000000    -8.138000000     2.221000000
C     2.468000000    -7.239000000     2.133000000
H     2.128000000    -7.821000000     2.985000000
C     1.616000000    -6.496000000     1.336000000
C     2.098000000    -5.936000000     0.110000000
H     1.366000000    -5.520000000    -0.577000000
O     0.925000000    -5.107000000    -6.800000000
H     1.788000000    -4.710000000    -6.684000000
H     0.695000000    -5.439000000    -5.933000000
O    -1.590000000    -3.117000000    -6.993000000
H    -0.967000000    -3.787000000    -6.713000000
H    -1.924000000    -2.744000000    -6.177000000
O    -4.805000000    -4.237000000    -2.817000000
H    -4.458000000    -4.221000000    -1.926000000
H    -5.500000000    -4.895000000    -2.792000000
O    -3.992000000    -5.162000000    -5.562000000
H    -4.845000000    -4.745000000    -5.676000000
H    -3.458000000    -4.501000000    -5.121000000
O    -2.054000000    -3.001000000    -4.268000000
H    -1.559000000    -3.533000000    -3.646000000
H    -2.508000000    -2.357000000    -3.724000000
O    -3.244000000    -7.141000000    -2.517000000
H    -2.664000000    -6.764000000    -1.856000000
H    -3.632000000    -6.384000000    -2.955000000
O    -1.703000000   -10.520000000    -0.226000000
H    -1.377000000   -10.876000000     0.600000000
H    -1.975000000    -9.628000000    -0.012000000
O     0.473000000    -8.626000000    -2.051000000
H     0.250000000    -7.729000000    -2.298000000
H    -0.344000000    -8.992000000    -1.713000000
O    -4.975000000    -1.669000000    -4.833000000
H    -4.300000000    -1.008000000    -4.682000000
H    -4.860000000    -2.296000000    -4.118000000
O    -2.542000000    -9.397000000     2.437000000
H    -2.179000000    -8.832000000     1.755000000
H    -2.637000000    -8.824000000     3.197000000
O    -5.897000000    -7.380000000    -1.299000000
H    -5.574000000    -6.913000000    -0.529000000
H    -5.111000000    -7.740000000    -1.709000000
O    -4.931000000    -6.674000000     2.476000000
H    -4.548000000    -7.505000000     2.756000000
H    -5.269000000    -6.283000000     3.282000000
O    -1.598000000    -8.287000000    -4.582000000
H    -2.156000000    -8.084000000    -5.332000000
H    -2.160000000    -8.149000000    -3.820000000
O    -4.822000000    -5.245000000     0.006000000
H    -3.875000000    -5.173000000    -0.107000000
H    -4.937000000    -5.488000000     0.924000000
O    -1.724000000    -7.846000000     0.196000000
H    -0.825000000    -7.522000000     0.251000000
H    -2.244000000    -7.072000000    -0.021000000
O    -3.199000000    -1.157000000    -2.472000000
H    -3.880000000    -1.083000000    -1.803000000
H    -2.380000000    -1.190000000    -1.977000000
O    -4.321000000    -7.722000000    -5.859000000
H    -5.010000000    -7.706000000    -6.524000000
H    -4.164000000    -6.800000000    -5.655000000
O     0.158000000    -6.261000000    -4.389000000
H    -0.038000000    -5.894000000    -3.527000000
H    -0.520000000    -6.922000000    -4.527000000
O    -5.087000000    -1.411000000    -0.528000000
H    -5.786000000    -1.149000000    -1.127000000
H    -5.517000000    -1.982000000     0.108000000
