201
-1231.24676
C    -2.659000000    -2.510000000    -4.518000000
H    -3.062000000    -1.666000000    -5.072000000
C    -2.800000000    -2.607000000    -3.120000000
C    -2.201000000    -3.687000000    -2.397000000
H    -2.296000000    -3.729000000    -1.315000000
C    -3.358000000    -1.445000000    -2.214000000
O    -4.071000000    -0.491000000    -3.113000000
H    -2.483000000    -0.887000000    -1.848000000
O    -4.287000000    -1.874000000    -1.231000000
C    -4.301000000    -1.284000000     0.057000000
C    -3.562000000    -1.835000000     1.137000000
H    -3.263000000    -2.878000000     1.067000000
C    -3.384000000    -1.174000000     2.330000000
O    -2.674000000    -1.829000000     3.304000000
C    -3.832000000     0.136000000     2.438000000
C    -3.762000000     0.817000000     3.775000000
H    -4.695000000     1.338000000     3.998000000
C    -2.506000000     1.567000000     3.991000000
C    -2.418000000     2.900000000     3.666000000
H    -3.354000000     3.381000000     3.394000000
H    -3.976000000     0.138000000     4.603000000
C    -4.509000000     0.699000000     1.410000000
H    -4.864000000     1.723000000     1.490000000
C    -4.677000000     0.035000000     0.206000000
C    -5.412000000     0.839000000    -0.927000000
H    -6.115000000     1.551000000    -0.489000000
H    -6.072000000     0.129000000    -1.429000000
C    -4.443000000     1.515000000    -1.794000000
C    -3.951000000     2.810000000    -1.470000000
H    -4.313000000     3.340000000    -0.593000000
C    -3.906000000     0.845000000    -2.896000000
C    -2.922000000     1.439000000    -3.667000000
H    -2.390000000     0.921000000    -4.461000000
C    -2.505000000     2.730000000    -3.405000000
O    -1.355000000     3.240000000    -3.998000000
C    -0.276000000     2.829000000    -3.134000000
C     0.818000000     2.185000000    -3.947000000
C     2.122000000     2.212000000    -3.455000000
H     2.372000000     2.770000000    -2.556000000
C     0.555000000     1.443000000    -5.069000000
H    -0.423000000     1.585000000    -5.522000000
O     0.295000000     4.055000000    -2.542000000
H    -0.548000000     2.178000000    -2.290000000
C    -2.990000000     3.468000000    -2.311000000
C    -2.385000000     4.880000000    -1.935000000
H    -3.183000000     5.534000000    -1.578000000
H    -1.993000000     5.323000000    -2.852000000
C    -1.243000000     4.829000000    -0.888000000
C    -1.508000000     5.124000000     0.466000000
H    -2.487000000     5.388000000     0.856000000
C     0.027000000     4.356000000    -1.247000000
C     1.080000000     4.253000000    -0.334000000
H     2.068000000     3.903000000    -0.622000000
C     0.761000000     4.561000000     1.016000000
O     1.785000000     4.326000000     1.933000000
C     1.646000000     3.138000000     2.765000000
C     2.937000000     2.262000000     2.850000000
C     3.467000000     1.690000000     1.687000000
H     3.059000000     1.826000000     0.689000000
C     3.517000000     2.072000000     4.083000000
H     3.084000000     2.633000000     4.908000000
O     1.121000000     3.371000000     4.052000000
H     0.990000000     2.478000000     2.179000000
C    -0.553000000     4.872000000     1.457000000
C    -0.992000000     4.925000000     2.971000000
H    -1.917000000     5.480000000     3.140000000
H    -0.194000000     5.452000000     3.499000000
C    -1.161000000     3.515000000     3.576000000
C    -0.098000000     2.853000000     4.168000000
C    -0.184000000     1.532000000     4.590000000
H     0.701000000     0.990000000     4.911000000
C    -1.380000000     0.867000000     4.435000000
O    -1.448000000    -0.497000000     4.692000000
C    -1.332000000    -1.361000000     3.605000000
H    -0.905000000    -0.770000000     2.781000000
C    -0.347000000    -2.478000000     3.842000000
C    -0.300000000    -3.505000000     2.936000000
H    -0.928000000    -3.606000000     2.054000000
C     0.600000000    -2.396000000     4.844000000
H     0.596000000    -1.547000000     5.522000000
C     1.525000000    -3.413000000     5.028000000
O     2.451000000    -3.350000000     6.071000000
C     1.618000000    -4.477000000     4.152000000
H     2.353000000    -5.276000000     4.196000000
C     0.666000000    -4.536000000     3.094000000
O     0.821000000    -5.513000000     2.093000000
C    -0.118000000    -5.745000000     1.182000000
C    -0.084000000    -5.378000000    -0.139000000
H     0.697000000    -4.737000000    -0.538000000
C    -1.115000000    -6.648000000     1.532000000
H    -1.098000000    -6.930000000     2.582000000
C    -2.034000000    -7.179000000     0.631000000
H    -2.904000000    -7.752000000     0.943000000
C    -1.973000000    -6.764000000    -0.691000000
H    -2.670000000    -7.174000000    -1.417000000
C    -0.928000000    -5.933000000    -1.056000000
O    -0.731000000    -5.637000000    -2.412000000
C    -1.432000000    -4.636000000    -3.072000000
C    -1.233000000    -4.469000000    -4.433000000
H    -0.686000000    -5.248000000    -4.958000000
C    -1.840000000    -3.418000000    -5.191000000
O    -1.697000000    -3.421000000    -6.553000000
C    -1.324000000    -2.375000000    -7.366000000
C    -0.380000000    -1.480000000    -6.732000000
H    -0.089000000    -1.731000000    -5.715000000
C    -1.656000000    -2.186000000    -8.756000000
H    -2.389000000    -2.865000000    -9.184000000
C    -0.899000000    -1.296000000    -9.529000000
H    -0.958000000    -1.379000000   -10.611000000
C     0.077000000    -0.457000000    -8.886000000
H     0.705000000     0.186000000    -9.498000000
C     0.311000000    -0.534000000    -7.542000000
O     1.319000000     0.280000000    -6.988000000
C     1.561000000     0.721000000    -5.724000000
C     2.866000000     0.747000000    -5.253000000
H     3.592000000     0.169000000    -5.819000000
C     3.141000000     1.501000000    -4.105000000
O     4.493000000     1.700000000    -3.818000000
C     5.089000000     1.621000000    -2.622000000
C     4.672000000     0.804000000    -1.559000000
H     3.820000000     0.168000000    -1.787000000
C     6.160000000     2.554000000    -2.427000000
H     6.443000000     3.210000000    -3.246000000
C     6.901000000     2.646000000    -1.209000000
H     7.622000000     3.427000000    -0.980000000
C     6.441000000     1.763000000    -0.164000000
H     7.013000000     1.643000000     0.753000000
C     5.211000000     1.034000000    -0.295000000
O     4.976000000     0.166000000     0.728000000
C     4.486000000     0.735000000     1.839000000
C     4.907000000     0.404000000     3.090000000
H     5.686000000    -0.352000000     3.141000000
C     4.534000000     1.124000000     4.213000000
O     4.969000000     0.754000000     5.473000000
C     4.101000000    -0.053000000     6.180000000
C     3.813000000     0.378000000     7.483000000
H     4.105000000     1.376000000     7.802000000
C     2.962000000    -0.447000000     8.305000000
H     2.678000000    -0.223000000     9.330000000
C     2.596000000    -1.716000000     7.850000000
H     2.099000000    -2.392000000     8.541000000
C     2.852000000    -2.123000000     6.546000000
C     3.595000000    -1.301000000     5.672000000
H     3.813000000    -1.713000000     4.689000000
O     3.626000000    -8.359000000     2.515000000
H     4.508000000    -8.414000000     2.883000000
H     3.686000000    -7.672000000     1.852000000
O     7.896000000    -5.864000000    -4.663000000
H     7.859000000    -5.493000000    -3.781000000
H     7.871000000    -6.811000000    -4.526000000
O     8.439000000    -2.020000000    -1.965000000
H     8.462000000    -1.788000000    -1.037000000
H     7.538000000    -2.306000000    -2.118000000
O     4.512000000    -9.000000000    -2.867000000
H     4.653000000    -9.703000000    -2.234000000
H     3.962000000    -8.368000000    -2.405000000
O     3.268000000    -4.809000000    -5.659000000
H     3.611000000    -4.011000000    -6.062000000
H     3.724000000    -4.868000000    -4.819000000
O     1.338000000    -8.268000000     0.450000000
H     0.963000000    -7.593000000     1.016000000
H     1.928000000    -8.759000000     1.021000000
O     1.081000000    -8.364000000    -4.090000000
H     1.750000000    -7.862000000    -3.625000000
H     0.512000000    -8.703000000    -3.399000000
O     6.256000000    -2.147000000    -0.294000000
H     5.588000000    -2.809000000    -0.120000000
H     5.781000000    -1.316000000    -0.272000000
O     1.083000000    -6.256000000    -6.165000000
H     1.932000000    -5.817000000    -6.116000000
H     0.995000000    -6.701000000    -5.322000000
O     7.394000000    -7.918000000    -0.934000000
H     6.561000000    -7.605000000    -0.580000000
H     7.512000000    -8.782000000    -0.539000000
O     7.258000000    -4.917000000    -2.131000000
H     8.156000000    -5.243000000    -2.065000000
H     7.086000000    -4.514000000    -1.280000000
O     8.071000000    -0.354000000    -4.249000000
H     8.200000000    -0.978000000    -3.535000000
H     8.510000000     0.443000000    -3.953000000
O     8.967000000    -5.107000000     2.822000000
H     8.245000000    -4.656000000     3.258000000
H     9.076000000    -5.919000000     3.316000000
O     8.646000000    -1.776000000     1.203000000
H     7.868000000    -2.078000000     0.735000000
H     8.389000000    -1.785000000     2.125000000
O     4.696000000    -4.277000000    -3.299000000
H     5.596000000    -4.460000000    -3.028000000
H     4.164000000    -4.513000000    -2.539000000
O     5.006000000    -6.481000000    -0.495000000
H     5.408000000    -6.452000000    -1.363000000
H     4.571000000    -5.634000000    -0.404000000
O     2.484000000    -7.229000000    -1.920000000
H     2.751000000    -6.339000000    -1.690000000
H     2.027000000    -7.550000000    -1.143000000
O     7.106000000    -4.235000000     4.520000000
H     6.308000000    -3.952000000     4.073000000
H     6.977000000    -5.171000000     4.670000000
O     4.099000000    -4.134000000     2.673000000
H     3.260000000    -4.580000000     2.553000000
H     4.384000000    -3.917000000     1.785000000
