201
-1264.17681
C    -4.907000000     2.244000000     0.673000000
H    -4.675000000     3.144000000     0.109000000
C    -4.071000000     1.708000000     1.699000000
C    -4.406000000     0.460000000     2.267000000
H    -3.680000000     0.105000000     2.994000000
C    -2.821000000     2.461000000     2.033000000
O    -2.834000000     3.863000000     1.721000000
H    -2.010000000     2.118000000     1.374000000
O    -2.492000000     2.206000000     3.397000000
C    -1.199000000     2.041000000     3.894000000
C    -0.877000000     0.757000000     4.338000000
H    -1.643000000     0.000000000     4.485000000
C     0.487000000     0.365000000     4.567000000
O     0.781000000    -0.962000000     4.829000000
C     1.489000000     1.289000000     4.402000000
C     2.927000000     0.972000000     4.661000000
H     3.464000000     1.873000000     4.967000000
C     3.534000000     0.413000000     3.435000000
C     4.182000000     1.272000000     2.531000000
H     4.478000000     2.223000000     2.966000000
H     3.150000000     0.220000000     5.421000000
C     1.109000000     2.566000000     4.079000000
H     1.913000000     3.298000000     4.073000000
C    -0.220000000     2.985000000     3.768000000
C    -0.433000000     4.475000000     3.337000000
H     0.398000000     5.015000000     3.796000000
H    -1.327000000     4.936000000     3.762000000
C    -0.497000000     4.668000000     1.779000000
C     0.668000000     4.890000000     1.054000000
H     1.586000000     5.016000000     1.622000000
C    -1.719000000     4.334000000     1.109000000
C    -1.690000000     4.356000000    -0.279000000
H    -2.564000000     4.009000000    -0.822000000
C    -0.509000000     4.540000000    -0.984000000
O    -0.600000000     4.205000000    -2.299000000
C    -0.092000000     2.959000000    -2.748000000
C    -0.980000000     2.295000000    -3.779000000
C    -0.453000000     1.283000000    -4.607000000
H     0.610000000     1.091000000    -4.484000000
C    -2.326000000     2.638000000    -3.922000000
H    -2.608000000     3.467000000    -3.278000000
O     1.182000000     3.273000000    -3.351000000
H     0.059000000     2.268000000    -1.906000000
C     0.703000000     4.844000000    -0.341000000
C     1.975000000     5.074000000    -1.154000000
H     2.716000000     5.723000000    -0.685000000
H     1.745000000     5.580000000    -2.094000000
C     2.690000000     3.785000000    -1.414000000
C     3.544000000     3.316000000    -0.461000000
H     3.806000000     3.874000000     0.435000000
C     2.333000000     3.030000000    -2.627000000
C     2.959000000     1.851000000    -2.801000000
H     2.637000000     1.217000000    -3.623000000
C     3.912000000     1.424000000    -1.877000000
O     4.382000000     0.142000000    -2.145000000
C     3.858000000    -0.922000000    -1.304000000
C     3.774000000    -2.239000000    -2.055000000
C     3.623000000    -2.153000000    -3.422000000
H     3.635000000    -1.190000000    -3.926000000
C     3.563000000    -3.516000000    -1.441000000
H     3.444000000    -3.592000000    -0.363000000
O     4.762000000    -1.132000000    -0.178000000
H     2.848000000    -0.674000000    -0.944000000
C     4.146000000     2.114000000    -0.694000000
C     5.224000000     1.651000000     0.246000000
H     5.812000000     2.473000000     0.659000000
H     5.842000000     0.992000000    -0.367000000
C     4.574000000     0.752000000     1.292000000
C     4.442000000    -0.600000000     1.018000000
C     3.967000000    -1.483000000     1.969000000
H     3.895000000    -2.561000000     1.857000000
C     3.506000000    -0.942000000     3.183000000
O     2.864000000    -1.802000000     3.976000000
C     1.417000000    -1.785000000     3.812000000
H     1.246000000    -1.229000000     2.878000000
C     0.703000000    -3.099000000     3.672000000
C    -0.628000000    -3.194000000     3.976000000
H    -1.220000000    -2.317000000     4.223000000
C     1.356000000    -4.261000000     3.233000000
H     2.376000000    -4.271000000     2.858000000
C     0.718000000    -5.480000000     3.326000000
O     1.185000000    -6.604000000     2.691000000
C    -0.656000000    -5.547000000     3.585000000
H    -1.233000000    -6.468000000     3.602000000
C    -1.301000000    -4.405000000     3.903000000
O    -2.638000000    -4.443000000     4.194000000
C    -3.568000000    -3.471000000     4.391000000
C    -4.200000000    -2.932000000     3.255000000
H    -3.884000000    -3.293000000     2.279000000
C    -3.942000000    -3.075000000     5.665000000
H    -3.561000000    -3.536000000     6.573000000
C    -4.818000000    -2.009000000     5.745000000
H    -5.039000000    -1.692000000     6.761000000
C    -5.523000000    -1.487000000     4.649000000
H    -6.249000000    -0.696000000     4.817000000
C    -5.227000000    -2.023000000     3.431000000
O    -5.746000000    -1.479000000     2.288000000
C    -5.510000000    -0.238000000     1.777000000
C    -6.293000000     0.280000000     0.763000000
H    -7.130000000    -0.261000000     0.327000000
C    -5.963000000     1.502000000     0.214000000
O    -6.835000000     2.051000000    -0.725000000
C    -6.646000000     2.659000000    -1.882000000
C    -5.730000000     2.114000000    -2.826000000
H    -5.188000000     1.213000000    -2.548000000
C    -7.234000000     3.863000000    -2.146000000
H    -7.907000000     4.283000000    -1.403000000
C    -6.936000000     4.554000000    -3.308000000
H    -7.472000000     5.460000000    -3.578000000
C    -6.021000000     4.037000000    -4.245000000
H    -5.726000000     4.661000000    -5.085000000
C    -5.397000000     2.819000000    -4.034000000
O    -4.572000000     2.312000000    -5.025000000
C    -3.196000000     1.910000000    -4.813000000
C    -2.675000000     0.992000000    -5.690000000
H    -3.287000000     0.563000000    -6.479000000
C    -1.308000000     0.626000000    -5.567000000
O    -0.888000000    -0.419000000    -6.416000000
C     0.475000000    -0.648000000    -6.429000000
C     1.049000000    -1.778000000    -5.897000000
H     0.386000000    -2.543000000    -5.500000000
C     1.262000000     0.356000000    -7.017000000
H     0.780000000     1.252000000    -7.398000000
C     2.633000000     0.194000000    -7.213000000
H     3.170000000     0.896000000    -7.845000000
C     3.233000000    -0.945000000    -6.651000000
H     4.284000000    -1.199000000    -6.768000000
C     2.455000000    -1.884000000    -5.990000000
O     2.998000000    -3.043000000    -5.532000000
C     3.272000000    -3.192000000    -4.170000000
C     3.162000000    -4.424000000    -3.620000000
H     2.800000000    -5.234000000    -4.248000000
C     3.277000000    -4.646000000    -2.238000000
O     3.230000000    -5.878000000    -1.660000000
C     3.313000000    -6.107000000    -0.281000000
C     4.563000000    -6.451000000     0.247000000
H     5.455000000    -6.394000000    -0.373000000
C     4.666000000    -6.904000000     1.562000000
H     5.552000000    -7.288000000     2.061000000
C     3.527000000    -7.017000000     2.375000000
H     3.524000000    -7.330000000     3.416000000
C     2.254000000    -6.574000000     1.891000000
C     2.170000000    -6.115000000     0.574000000
H     1.250000000    -5.685000000     0.187000000
O    -5.408000000    -7.279000000    -1.189000000
H    -5.032000000    -6.514000000    -0.753000000
H    -5.664000000    -7.862000000    -0.474000000
O    -2.150000000    -8.578000000    -4.894000000
H    -3.083000000    -8.722000000    -5.057000000
H    -2.087000000    -8.472000000    -3.945000000
O    -6.959000000    -4.934000000     0.604000000
H    -7.588000000    -4.236000000     0.421000000
H    -6.124000000    -4.595000000     0.282000000
O    -3.857000000    -2.149000000    -0.982000000
H    -3.128000000    -1.871000000    -0.427000000
H    -3.656000000    -1.782000000    -1.843000000
O    -0.999000000    -9.641000000     1.650000000
H    -0.346000000    -9.936000000     2.286000000
H    -0.603000000    -8.874000000     1.238000000
O    -3.332000000    -9.241000000    -2.350000000
H    -3.797000000    -8.467000000    -2.032000000
H    -2.973000000    -9.646000000    -1.561000000
O    -5.455000000    -1.650000000    -4.548000000
H    -4.608000000    -1.962000000    -4.228000000
H    -6.082000000    -2.305000000    -4.242000000
O    -3.095000000    -2.844000000    -3.620000000
H    -3.298000000    -3.234000000    -4.470000000
H    -2.377000000    -3.375000000    -3.278000000
O    -3.656000000    -5.971000000    -3.323000000
H    -2.998000000    -5.567000000    -2.757000000
H    -4.482000000    -5.845000000    -2.858000000
O    -0.881000000    -3.841000000    -7.689000000
H     0.016000000    -4.172000000    -7.711000000
H    -1.289000000    -4.303000000    -6.957000000
O    -4.405000000    -4.698000000    -0.623000000
H    -3.537000000    -4.705000000    -0.219000000
H    -4.536000000    -3.789000000    -0.892000000
O    -3.303000000    -7.021000000     2.301000000
H    -3.319000000    -7.443000000     3.160000000
H    -3.092000000    -6.106000000     2.488000000
O     1.738000000    -5.002000000    -6.931000000
H     2.499000000    -4.753000000    -6.407000000
H     1.110000000    -5.344000000    -6.294000000
O    -1.890000000    -6.182000000    -6.431000000
H    -2.014000000    -7.090000000    -6.153000000
H    -1.135000000    -5.878000000    -5.927000000
O    -0.377000000    -9.128000000    -2.441000000
H     0.224000000    -8.443000000    -2.736000000
H    -1.173000000    -8.658000000    -2.196000000
O    -1.987000000    -7.677000000    -0.183000000
H    -2.245000000    -7.704000000     0.738000000
H    -1.817000000    -6.751000000    -0.357000000
O    -4.055000000    -4.727000000    -5.844000000
H    -4.195000000    -5.245000000    -5.052000000
H    -3.252000000    -5.084000000    -6.225000000
O     1.698000000    -7.390000000    -3.544000000
H     2.083000000    -7.060000000    -2.732000000
H     2.421000000    -7.833000000    -3.989000000
O     0.132000000    -5.503000000    -4.703000000
H     0.699000000    -6.197000000    -4.365000000
H    -0.473000000    -5.318000000    -3.985000000
