158
-3012.09226
C    -0.747000000     0.507000000    -1.154000000
H    -1.330000000     0.982000000    -1.939000000
C    -0.893000000     0.944000000     0.075000000
H    -1.577000000     1.737000000     0.365000000
C    -0.059000000     0.431000000     1.110000000
H    -0.119000000     0.770000000     2.112000000
C     0.824000000    -0.590000000     0.836000000
H     1.510000000    -0.933000000     1.606000000
C     0.848000000    -1.127000000    -0.443000000
H     1.428000000    -2.001000000    -0.728000000
C     0.015000000    -0.612000000    -1.435000000
C     0.124000000    -1.175000000    -2.852000000
O     0.522000000    -2.301000000    -3.033000000
O    -0.122000000    -0.455000000    -3.783000000
O    -2.761000000     3.815000000    -3.749000000
H    -2.921000000     3.363000000    -4.577000000
H    -3.605000000     4.206000000    -3.523000000
O    -1.372000000    -1.938000000    -7.621000000
H    -1.074000000    -2.438000000    -8.382000000
H    -2.170000000    -2.386000000    -7.339000000
O     4.401000000    -2.231000000    -6.028000000
H     4.714000000    -1.953000000    -6.888000000
H     3.457000000    -2.073000000    -6.055000000
O     2.948000000    -2.795000000    -3.142000000
H     3.018000000    -3.100000000    -4.046000000
H     2.008000000    -2.688000000    -2.997000000
O    -3.056000000    -3.358000000    -5.984000000
H    -2.716000000    -2.681000000    -5.399000000
H    -4.001000000    -3.351000000    -5.833000000
O     2.822000000     1.561000000    -0.005000000
H     2.118000000     0.914000000    -0.044000000
H     2.389000000     2.369000000     0.272000000
O    -0.948000000     0.479000000    -6.263000000
H    -0.691000000     0.258000000    -5.367000000
H    -0.881000000    -0.348000000    -6.741000000
O    -3.613000000     0.451000000     2.700000000
H    -4.484000000     0.151000000     2.440000000
H    -3.412000000     1.161000000     2.090000000
O     3.879000000    -3.584000000     2.439000000
H     4.760000000    -3.287000000     2.211000000
H     3.631000000    -3.046000000     3.191000000
O     4.331000000     1.965000000     4.748000000
H     3.475000000     2.277000000     4.456000000
H     4.798000000     1.754000000     3.940000000
O     2.214000000    -0.413000000     5.666000000
H     1.406000000    -0.921000000     5.594000000
H     2.064000000     0.173000000     6.408000000
O    -4.751000000     2.574000000     1.060000000
H    -4.966000000     1.961000000     0.357000000
H    -4.389000000     3.337000000     0.611000000
O    -0.417000000     4.611000000     2.123000000
H     0.016000000     3.788000000     1.899000000
H     0.275000000     5.149000000     2.508000000
O    -2.196000000    -2.687000000    -0.894000000
H    -3.049000000    -2.277000000    -0.751000000
H    -1.715000000    -2.528000000    -0.082000000
O    -2.426000000     3.310000000     6.969000000
H    -3.219000000     2.836000000     6.718000000
H    -1.746000000     2.960000000     6.392000000
O    -1.993000000    -1.738000000     1.887000000
H    -1.211000000    -1.213000000     1.720000000
H    -2.648000000    -1.106000000     2.184000000
O    -5.329000000     3.357000000     3.559000000
H    -5.100000000     3.177000000     2.647000000
H    -5.313000000     4.311000000     3.626000000
O    -1.652000000     5.567000000     4.556000000
H    -1.098000000     4.794000000     4.449000000
H    -2.532000000     5.214000000     4.691000000
O    -2.693000000    -1.571000000    -3.764000000
H    -2.689000000    -2.299000000    -3.143000000
H    -1.777000000    -1.295000000    -3.815000000
O    -3.021000000     5.812000000     1.884000000
H    -3.159000000     5.391000000     1.035000000
H    -2.211000000     5.424000000     2.215000000
O     1.975000000     3.036000000     3.782000000
H     2.253000000     3.373000000     2.930000000
H     1.776000000     3.819000000     4.296000000
O    -0.008000000    -4.635000000    -0.695000000
H    -0.212000000    -3.848000000    -1.200000000
H     0.227000000    -4.308000000     0.173000000
O     1.544000000     5.817000000     4.327000000
H     0.896000000     6.521000000     4.324000000
H     2.388000000     6.269000000     4.345000000
O    -4.811000000    -0.351000000    -4.806000000
H    -4.480000000     0.076000000    -5.596000000
H    -4.027000000    -0.681000000    -4.367000000
O     2.222000000    -4.973000000    -5.457000000
H     2.103000000    -4.225000000    -6.044000000
H     1.362000000    -5.393000000    -5.428000000
O     2.469000000    -5.834000000    -2.199000000
H     2.831000000    -4.960000000    -2.345000000
H     1.525000000    -5.693000000    -2.131000000
O    -0.499000000     2.688000000     5.072000000
H     0.321000000     2.479000000     4.625000000
H    -1.007000000     1.878000000     5.033000000
O     0.461000000     2.378000000    -7.518000000
H     1.064000000     1.906000000    -8.092000000
H     0.010000000     1.691000000    -7.027000000
O    -2.036000000    -5.360000000    -3.060000000
H    -2.187000000    -5.165000000    -2.135000000
H    -2.867000000    -5.721000000    -3.368000000
O     4.382000000    -0.495000000    -2.921000000
H     3.930000000    -1.312000000    -3.130000000
H     3.683000000     0.154000000    -2.846000000
O     4.393000000    -1.090000000     4.057000000
H     4.985000000    -1.362000000     4.758000000
H     3.696000000    -0.611000000     4.506000000
O     5.049000000     0.069000000     1.406000000
H     4.187000000     0.413000000     1.174000000
H     4.894000000    -0.456000000     2.191000000
O     0.218000000     4.352000000    -3.464000000
H    -0.200000000     5.027000000    -2.928000000
H    -0.510000000     3.827000000    -3.797000000
O     5.652000000    -3.801000000    -1.216000000
H     5.579000000    -2.894000000    -0.919000000
H     6.432000000    -4.136000000    -0.774000000
O    -0.367000000    -4.061000000    -4.741000000
H     0.008000000    -3.441000000    -4.116000000
H    -1.032000000    -4.534000000    -4.240000000
O    -0.731000000     5.774000000    -0.989000000
H     0.171000000     5.667000000    -0.686000000
H    -0.991000000     6.637000000    -0.666000000
O    -4.579000000    -1.894000000    -0.087000000
H    -4.721000000    -1.996000000     0.854000000
H    -4.929000000    -1.026000000    -0.289000000
O    -0.086000000    -1.747000000     5.789000000
H    -0.418000000    -1.718000000     6.686000000
H    -0.577000000    -2.457000000     5.375000000
O     2.022000000     1.275000000    -3.623000000
H     1.709000000     2.141000000    -3.361000000
H     1.228000000     0.796000000    -3.861000000
O    -2.576000000     0.563000000     5.338000000
H    -2.771000000     0.462000000     4.407000000
H    -3.410000000     0.822000000     5.730000000
O    -3.099000000     4.459000000    -0.357000000
H    -3.665000000     4.722000000    -1.083000000
H    -2.211000000     4.539000000    -0.705000000
O     2.590000000     4.222000000     1.192000000
H     3.326000000     4.382000000     1.782000000
H     2.605000000     4.961000000     0.583000000
O    -3.651000000     0.964000000    -6.870000000
H    -2.795000000     0.652000000    -6.577000000
H    -3.492000000     1.863000000    -7.159000000
O     1.156000000    -4.422000000     1.873000000
H     2.045000000    -4.069000000     1.844000000
H     1.198000000    -5.125000000     2.521000000
O     1.657000000    -1.801000000    -5.984000000
H     1.523000000    -1.241000000    -5.219000000
H     1.065000000    -2.540000000    -5.846000000
O    -2.057000000    -0.606000000     7.655000000
H    -1.831000000     0.075000000     8.288000000
H    -2.345000000    -0.126000000     6.878000000
O     6.210000000    -1.063000000    -0.934000000
H     5.818000000    -0.545000000    -0.231000000
H     5.619000000    -0.945000000    -1.677000000
O    -0.040000000    -5.404000000    -7.154000000
H    -0.336000000    -5.020000000    -6.329000000
H    -0.624000000    -6.149000000    -7.295000000
