158
-2995.14627
C    -0.454000000     0.273000000    -1.395000000
H    -0.749000000     0.508000000    -2.414000000
C    -0.729000000     1.096000000    -0.301000000
H    -1.095000000     2.108000000    -0.449000000
C    -0.295000000     0.734000000     0.972000000
H    -0.556000000     1.370000000     1.796000000
C     0.429000000    -0.441000000     1.183000000
H     0.728000000    -0.704000000     2.194000000
C     0.721000000    -1.264000000     0.051000000
H     1.181000000    -2.235000000     0.219000000
C     0.303000000    -0.934000000    -1.283000000
C     0.593000000    -1.901000000    -2.404000000
O     1.206000000    -2.929000000    -2.184000000
O     0.016000000    -1.798000000    -3.471000000
O    -0.823000000     4.040000000    -4.682000000
H    -1.767000000     4.155000000    -4.787000000
H    -0.530000000     4.845000000    -4.254000000
O     4.064000000    -3.329000000    -2.083000000
H     4.255000000    -3.018000000    -1.197000000
H     3.212000000    -2.946000000    -2.292000000
O    -4.805000000     0.786000000    -0.497000000
H    -4.332000000     1.434000000    -1.019000000
H    -5.701000000     1.119000000    -0.456000000
O     2.704000000     0.932000000    -0.108000000
H     1.987000000     0.497000000     0.353000000
H     2.325000000     1.194000000    -0.948000000
O     2.143000000    -7.918000000    -1.677000000
H     2.498000000    -7.452000000    -2.434000000
H     1.603000000    -7.268000000    -1.228000000
O    -1.362000000     6.215000000     3.104000000
H    -2.031000000     6.076000000     3.774000000
H    -1.769000000     5.909000000     2.293000000
O    -1.437000000    -0.378000000    -6.878000000
H    -0.575000000    -0.432000000    -6.465000000
H    -1.268000000     0.015000000    -7.735000000
O    -4.381000000    -0.064000000     1.956000000
H    -5.149000000     0.283000000     2.410000000
H    -4.544000000     0.122000000     1.032000000
O     5.352000000    -3.573000000     0.727000000
H     5.237000000    -2.735000000     1.175000000
H     6.300000000    -3.675000000     0.647000000
O    -0.268000000    -3.567000000     3.649000000
H    -0.372000000    -4.232000000     4.329000000
H    -1.153000000    -3.231000000     3.505000000
O     3.668000000    -3.180000000     4.845000000
H     3.043000000    -3.457000000     5.515000000
H     4.146000000    -3.978000000     4.618000000
O    -4.020000000     2.921000000     1.899000000
H    -3.425000000     2.253000000     2.239000000
H    -3.746000000     3.045000000     0.990000000
O     1.003000000     5.127000000    -0.629000000
H     0.860000000     6.060000000    -0.469000000
H     1.219000000     4.767000000     0.231000000
O    -2.807000000    -4.548000000    -3.100000000
H    -2.923000000    -3.708000000    -3.543000000
H    -2.655000000    -4.318000000    -2.184000000
O    -1.769000000    -4.594000000    -0.280000000
H    -2.092000000    -5.123000000     0.450000000
H    -1.749000000    -3.700000000     0.062000000
O    -6.059000000     1.819000000     3.744000000
H    -5.870000000     2.256000000     2.914000000
H    -6.944000000     2.105000000     3.970000000
O    -2.826000000     5.088000000     4.995000000
H    -2.534000000     4.182000000     4.892000000
H    -3.511000000     5.044000000     5.662000000
O     1.952000000    -4.061000000     2.032000000
H     2.626000000    -3.535000000     2.463000000
H     1.137000000    -3.807000000     2.465000000
O    -2.581000000    -2.053000000    -4.024000000
H    -2.965000000    -1.305000000    -3.566000000
H    -1.639000000    -1.970000000    -3.871000000
O     3.366000000     4.124000000    -1.323000000
H     2.934000000     3.687000000    -0.589000000
H     2.805000000     4.874000000    -1.519000000
O    -2.325000000     5.329000000     0.756000000
H    -2.714000000     4.794000000     0.065000000
H    -1.740000000     5.929000000     0.294000000
O     0.521000000     3.091000000     3.864000000
H     0.893000000     2.882000000     3.007000000
H     1.067000000     3.804000000     4.194000000
O     1.428000000    -5.250000000    -0.454000000
H     1.321000000    -4.483000000    -1.017000000
H     1.343000000    -4.909000000     0.436000000
O     2.873000000     3.886000000     4.959000000
H     3.543000000     3.317000000     4.581000000
H     3.132000000     4.769000000     4.695000000
O    -5.034000000    -1.362000000    -5.537000000
H    -4.092000000    -1.211000000    -5.613000000
H    -5.187000000    -1.454000000    -4.597000000
O     3.432000000    -4.087000000    -5.705000000
H     3.612000000    -4.262000000    -4.781000000
H     2.900000000    -4.831000000    -5.989000000
O     2.820000000    -5.969000000    -3.298000000
H     3.044000000    -5.396000000    -2.564000000
H     1.985000000    -5.630000000    -3.620000000
O    -1.709000000     2.375000000     5.378000000
H    -0.946000000     2.548000000     4.826000000
H    -2.062000000     1.549000000     5.046000000
O     5.535000000    -0.956000000    -3.006000000
H     5.505000000    -0.207000000    -2.411000000
H     4.854000000    -0.776000000    -3.654000000
O     4.749000000    -1.676000000     3.116000000
H     5.246000000    -1.069000000     3.665000000
H     4.238000000    -2.195000000     3.736000000
O     5.590000000     0.807000000     0.951000000
H     4.773000000     0.834000000     0.453000000
H     5.388000000     0.265000000     1.714000000
O     1.797000000     2.503000000    -2.985000000
H     2.259000000     3.209000000    -2.532000000
H     1.354000000     2.935000000    -3.714000000
O     6.324000000    -4.271000000    -3.340000000
H     5.531000000    -3.863000000    -2.991000000
H     6.610000000    -4.868000000    -2.649000000
O    -0.055000000    -5.220000000    -3.372000000
H     0.263000000    -4.374000000    -3.057000000
H    -1.004000000    -5.115000000    -3.425000000
O    -2.229000000    -1.799000000     0.169000000
H    -1.335000000    -1.458000000     0.131000000
H    -2.710000000    -1.152000000     0.686000000
O    -5.421000000     5.270000000     2.412000000
H    -4.929000000     4.463000000     2.259000000
H    -5.167000000     5.846000000     1.691000000
O    -0.441000000     3.955000000     7.454000000
H    -0.601000000     3.517000000     6.619000000
H     0.096000000     3.337000000     7.950000000
O    -0.535000000    -1.905000000     5.932000000
H    -0.808000000    -1.214000000     5.329000000
H     0.362000000    -2.112000000     5.669000000
O     3.082000000     0.328000000    -4.084000000
H     2.435000000     1.027000000    -3.998000000
H     2.621000000    -0.370000000    -4.549000000
O    -4.340000000     0.806000000     6.054000000
H    -3.764000000     1.491000000     6.394000000
H    -4.998000000     1.278000000     5.544000000
O    -2.379000000    -0.206000000     4.057000000
H    -2.894000000    -0.553000000     3.329000000
H    -2.920000000    -0.365000000     4.831000000
O    -3.388000000     3.871000000    -1.279000000
H    -3.154000000     3.148000000    -1.861000000
H    -3.378000000     4.645000000    -1.842000000
O     2.320000000     3.369000000     1.170000000
H     3.038000000     3.499000000     1.789000000
H     2.482000000     2.504000000     0.793000000
O    -1.044000000    -7.299000000    -1.026000000
H    -1.780000000    -7.171000000    -0.427000000
H    -0.602000000    -6.450000000    -1.048000000
O    -3.547000000     1.472000000    -5.841000000
H    -2.916000000     0.764000000    -5.969000000
H    -3.378000000     2.076000000    -6.564000000
O     1.459000000    -1.280000000    -5.794000000
H     0.914000000    -1.702000000    -5.129000000
H     1.523000000    -1.926000000    -6.497000000
O    -3.546000000     1.818000000    -2.900000000
H    -3.261000000     1.878000000    -3.811000000
H    -4.489000000     1.662000000    -2.954000000
O     0.299000000    -6.179000000    -6.293000000
H     0.269000000    -5.861000000    -5.390000000
H     0.270000000    -7.132000000    -6.211000000
