158
-3020.30841
C    -0.846000000     0.553000000    -1.086000000
H    -1.527000000     0.919000000    -1.851000000
C    -1.146000000     0.725000000     0.251000000
H    -1.964000000     1.299000000     0.679000000
C    -0.229000000     0.225000000     1.243000000
H    -0.335000000     0.498000000     2.288000000
C     0.952000000    -0.347000000     0.791000000
H     1.661000000    -0.825000000     1.462000000
C     1.316000000    -0.455000000    -0.564000000
H     2.296000000    -0.802000000    -0.883000000
C     0.326000000    -0.094000000    -1.522000000
C     0.601000000    -0.380000000    -2.996000000
O     1.489000000    -1.196000000    -3.247000000
O    -0.010000000     0.176000000    -3.869000000
O    -1.853000000     4.514000000    -5.004000000
H    -1.924000000     3.589000000    -4.765000000
H    -2.572000000     4.938000000    -4.536000000
O     3.709000000    -2.318000000    -6.708000000
H     3.270000000    -3.168000000    -6.676000000
H     3.032000000    -1.689000000    -6.462000000
O     3.444000000     0.833000000    -3.491000000
H     4.071000000     0.362000000    -2.943000000
H     2.685000000     0.252000000    -3.541000000
O    -5.605000000    -1.167000000    -2.842000000
H    -5.511000000    -0.217000000    -2.916000000
H    -6.551000000    -1.313000000    -2.834000000
O    -1.519000000    -1.213000000     4.830000000
H    -1.191000000    -1.913000000     5.395000000
H    -1.799000000    -1.661000000     4.032000000
O     4.204000000     3.293000000    -1.321000000
H     3.523000000     3.287000000    -0.648000000
H     3.923000000     2.630000000    -1.952000000
O    -2.195000000     3.466000000     2.663000000
H    -1.966000000     2.800000000     3.311000000
H    -3.149000000     3.420000000     2.600000000
O     3.631000000    -2.405000000     0.904000000
H     4.522000000    -2.433000000     0.556000000
H     3.070000000    -2.481000000     0.133000000
O    -2.594000000    -4.574000000     5.166000000
H    -2.798000000    -4.466000000     4.237000000
H    -1.638000000    -4.579000000     5.202000000
O     4.454000000     2.380000000     5.178000000
H     4.537000000     2.522000000     6.121000000
H     3.515000000     2.453000000     5.007000000
O     1.572000000    -2.302000000     4.193000000
H     2.112000000    -1.605000000     3.822000000
H     2.065000000    -3.105000000     4.020000000
O    -4.112000000     1.899000000    -0.750000000
H    -3.629000000     2.724000000    -0.790000000
H    -4.511000000     1.812000000    -1.615000000
O     3.026000000     3.458000000    -4.664000000
H     3.404000000     2.602000000    -4.460000000
H     2.237000000     3.506000000    -4.123000000
O    -1.266000000     6.191000000     2.441000000
H    -1.959000000     6.411000000     1.818000000
H    -1.476000000     5.302000000     2.728000000
O    -2.718000000    -2.163000000    -4.981000000
H    -3.509000000    -1.632000000    -5.074000000
H    -2.604000000    -2.260000000    -4.036000000
O    -3.345000000    -2.898000000    -2.294000000
H    -2.892000000    -2.764000000    -1.461000000
H    -4.040000000    -2.240000000    -2.297000000
O    -6.340000000    -0.280000000     3.883000000
H    -6.461000000    -0.116000000     4.818000000
H    -5.743000000    -1.027000000     3.846000000
O    -1.838000000     1.666000000     4.593000000
H    -2.618000000     1.993000000     5.040000000
H    -1.884000000     0.715000000     4.694000000
O     0.318000000    -4.262000000    -0.317000000
H    -0.110000000    -5.072000000    -0.595000000
H    -0.404000000    -3.680000000    -0.077000000
O    -1.977000000     1.659000000    -4.984000000
H    -2.618000000     1.271000000    -4.389000000
H    -1.148000000     1.242000000    -4.748000000
O    -3.188000000     4.411000000    -0.200000000
H    -2.448000000     4.339000000     0.402000000
H    -3.314000000     5.353000000    -0.314000000
O     1.772000000     2.361000000     2.095000000
H     1.738000000     2.301000000     3.050000000
H     0.997000000     1.883000000     1.798000000
O     2.644000000    -3.311000000    -1.601000000
H     2.505000000    -2.730000000    -2.349000000
H     1.809000000    -3.765000000    -1.491000000
O     2.413000000     4.610000000     0.676000000
H     2.230000000     3.757000000     1.070000000
H     2.044000000     5.243000000     1.292000000
O     1.941000000    -4.561000000    -6.841000000
H     1.499000000    -4.151000000    -6.097000000
H     1.229000000    -4.870000000    -7.401000000
O     0.828000000    -2.838000000    -5.070000000
H     1.017000000    -2.234000000    -4.352000000
H    -0.049000000    -3.171000000    -4.879000000
O     1.739000000     1.456000000     4.881000000
H     2.095000000     0.722000000     4.381000000
H     1.508000000     1.077000000     5.730000000
O     0.048000000     0.192000000     6.860000000
H    -0.711000000     0.536000000     7.331000000
H    -0.319000000    -0.205000000     6.071000000
O     5.468000000     0.091000000     0.656000000
H     5.744000000    -0.347000000     1.461000000
H     6.113000000     0.785000000     0.527000000
O     4.614000000    -4.003000000    -3.538000000
H     3.941000000    -3.454000000    -3.136000000
H     5.345000000    -3.977000000    -2.920000000
O     3.522000000    -0.212000000     3.274000000
H     3.836000000    -0.176000000     2.370000000
H     4.021000000     0.466000000     3.729000000
O     5.211000000    -0.611000000    -2.005000000
H     5.754000000    -1.397000000    -2.060000000
H     5.348000000    -0.286000000    -1.115000000
O     0.863000000     2.662000000    -3.428000000
H     0.469000000     1.878000000    -3.810000000
H     0.133000000     3.118000000    -3.010000000
O    -1.118000000    -2.119000000    -7.345000000
H    -0.217000000    -1.943000000    -7.073000000
H    -1.560000000    -2.397000000    -6.544000000
O    -4.639000000     1.679000000     2.864000000
H    -4.282000000     0.936000000     2.377000000
H    -5.385000000     1.316000000     3.341000000
O    -4.434000000    -0.237000000     0.907000000
H    -4.284000000     0.364000000     0.177000000
H    -5.380000000    -0.382000000     0.906000000
O    -0.508000000     3.654000000     6.229000000
H    -0.730000000     2.964000000     5.604000000
H     0.278000000     4.062000000     5.866000000
O    -4.740000000    -2.497000000     4.090000000
H    -4.361000000    -2.743000000     4.934000000
H    -5.388000000    -3.178000000     3.910000000
O    -2.005000000    -2.130000000     0.406000000
H    -2.804000000    -1.775000000     0.797000000
H    -1.572000000    -1.370000000     0.017000000
O    -1.376000000     3.728000000    -2.352000000
H    -0.681000000     4.305000000    -2.037000000
H    -2.150000000     3.990000000    -1.853000000
O    -1.233000000    -4.267000000    -3.293000000
H    -2.001000000    -3.792000000    -2.978000000
H    -1.110000000    -4.973000000    -2.658000000
O    -1.739000000     1.358000000    -7.545000000
H    -1.685000000     0.416000000    -7.706000000
H    -2.032000000     1.429000000    -6.636000000
O     5.881000000     0.939000000    -5.149000000
H     5.024000000     0.876000000    -4.728000000
H     5.735000000     1.503000000    -5.908000000
O     2.324000000    -4.542000000     1.836000000
H     2.961000000    -3.858000000     1.630000000
H     1.904000000    -4.737000000     0.998000000
O     1.417000000    -0.247000000    -6.779000000
H     0.932000000    -0.089000000    -5.969000000
H     1.927000000     0.552000000    -6.913000000
O    -0.068000000    -3.192000000     6.142000000
H     0.357000000    -3.168000000     5.285000000
H     0.572000000    -3.617000000     6.714000000
O    -4.916000000     2.079000000    -3.470000000
H    -5.870000000     2.074000000    -3.549000000
H    -4.656000000     2.952000000    -3.764000000
O    -2.581000000    -4.348000000     2.364000000
H    -2.052000000    -3.673000000     1.939000000
H    -3.485000000    -4.065000000     2.227000000
