158
-3041.10742
C    -1.155000000     0.456000000    -0.749000000
H    -2.059000000     0.941000000    -1.107000000
C    -1.170000000    -0.059000000     0.514000000
H    -2.105000000    -0.025000000     1.068000000
C    -0.041000000    -0.465000000     1.118000000
H    -0.035000000    -0.834000000     2.141000000
C     1.147000000    -0.334000000     0.474000000
H     2.017000000    -0.740000000     0.983000000
C     1.168000000     0.088000000    -0.798000000
H     2.154000000     0.082000000    -1.256000000
C     0.027000000     0.467000000    -1.521000000
C     0.059000000     0.969000000    -2.966000000
O     1.054000000     1.250000000    -3.582000000
O    -0.998000000     1.311000000    -3.480000000
O    -1.527000000     5.452000000    -6.294000000
H    -1.036000000     4.782000000    -6.770000000
H    -1.432000000     5.209000000    -5.373000000
O     3.579000000     2.220000000    -6.670000000
H     3.131000000     1.376000000    -6.608000000
H     3.218000000     2.737000000    -5.950000000
O     2.640000000     2.732000000    -1.948000000
H     3.273000000     2.201000000    -1.465000000
H     2.098000000     2.094000000    -2.412000000
O    -2.741000000    -1.859000000    -3.632000000
H    -3.177000000    -1.693000000    -2.796000000
H    -3.418000000    -2.253000000    -4.181000000
O    -3.707000000     4.411000000     4.176000000
H    -3.707000000     4.058000000     5.065000000
H    -3.584000000     3.645000000     3.615000000
O     2.373000000     4.325000000     3.072000000
H     1.933000000     3.675000000     2.523000000
H     1.688000000     4.957000000     3.289000000
O    -3.150000000    -0.672000000     3.535000000
H    -3.974000000    -1.054000000     3.838000000
H    -2.495000000    -1.349000000     3.704000000
O     1.584000000     4.742000000    -0.659000000
H     1.294000000     4.062000000    -0.051000000
H     1.950000000     4.260000000    -1.401000000
O    -0.958000000     3.093000000     3.222000000
H    -0.813000000     2.976000000     4.161000000
H    -1.865000000     2.819000000     3.083000000
O     5.220000000    -2.754000000    -2.889000000
H     5.510000000    -2.971000000    -2.003000000
H     5.127000000    -1.801000000    -2.884000000
O     2.001000000    -3.932000000     2.417000000
H     1.966000000    -4.043000000     1.467000000
H     1.157000000    -4.260000000     2.727000000
O    -1.306000000    -2.712000000     3.959000000
H    -1.024000000    -3.243000000     3.214000000
H    -0.530000000    -2.649000000     4.516000000
O     4.975000000     0.060000000    -4.520000000
H     4.906000000     0.717000000    -3.827000000
H     4.082000000    -0.034000000    -4.850000000
O     1.204000000    -3.158000000     5.371000000
H     1.079000000    -3.818000000     6.053000000
H     2.148000000    -3.148000000     5.216000000
O    -5.101000000     2.939000000    -4.132000000
H    -4.317000000     2.457000000    -3.867000000
H    -4.801000000     3.841000000    -4.242000000
O    -4.981000000    -1.246000000     1.282000000
H    -4.860000000    -2.144000000     1.590000000
H    -4.467000000    -0.713000000     1.889000000
O    -3.329000000     2.035000000     3.139000000
H    -3.612000000     2.119000000     2.229000000
H    -3.308000000     1.091000000     3.296000000
O     2.479000000    -2.988000000    -3.151000000
H     3.398000000    -2.802000000    -2.959000000
H     2.384000000    -3.925000000    -2.977000000
O     4.026000000    -2.913000000     5.472000000
H     4.733000000    -2.336000000     5.183000000
H     4.273000000    -3.168000000     6.361000000
O    -0.679000000    -1.101000000    -5.570000000
H    -1.153000000    -1.400000000    -4.794000000
H    -0.798000000    -0.152000000    -5.573000000
O    -1.498000000     3.867000000    -0.741000000
H    -1.149000000     3.383000000     0.006000000
H    -2.205000000     4.398000000    -0.374000000
O    -5.304000000     1.030000000    -6.594000000
H    -6.245000000     1.100000000    -6.751000000
H    -5.180000000     1.388000000    -5.715000000
O     2.003000000     3.363000000    -4.923000000
H     1.526000000     2.629000000    -4.535000000
H     2.039000000     4.020000000    -4.229000000
O     0.982000000     2.643000000     1.301000000
H     0.832000000     1.831000000     0.817000000
H     0.333000000     2.627000000     2.004000000
O     2.389000000     0.009000000    -5.319000000
H     1.662000000    -0.437000000    -5.753000000
H     1.970000000     0.588000000    -4.683000000
O     0.906000000     0.077000000     6.439000000
H     0.890000000    -0.871000000     6.307000000
H     1.572000000     0.392000000     5.827000000
O     4.121000000    -2.517000000     2.666000000
H     3.380000000    -3.106000000     2.812000000
H     3.913000000    -1.739000000     3.183000000
O     1.073000000    -2.982000000    -5.501000000
H     0.379000000    -2.331000000    -5.600000000
H     1.373000000    -2.877000000    -4.598000000
O     6.870000000    -2.000000000     2.243000000
H     5.915000000    -2.023000000     2.183000000
H     7.078000000    -2.581000000     2.974000000
O     0.274000000     3.788000000    -7.257000000
H     0.953000000     3.607000000    -6.607000000
H     0.754000000     4.083000000    -8.030000000
O     4.976000000     0.680000000     2.841000000
H     5.169000000     0.822000000     1.914000000
H     5.827000000     0.489000000     3.236000000
O     3.305000000     0.473000000     5.146000000
H     3.662000000     0.682000000     4.283000000
H     3.864000000     0.949000000     5.759000000
O     4.733000000     1.235000000    -1.003000000
H     4.712000000     0.346000000    -0.648000000
H     5.617000000     1.548000000    -0.815000000
O     3.747000000    -5.779000000     4.156000000
H     4.457000000    -5.370000000     4.652000000
H     3.298000000    -5.048000000     3.733000000
O    -1.544000000     4.035000000    -3.977000000
H    -1.605000000     3.080000000    -4.003000000
H    -1.287000000     4.233000000    -3.076000000
O    -4.967000000    -3.711000000     2.669000000
H    -4.252000000    -4.293000000     2.415000000
H    -4.885000000    -3.631000000     3.620000000
O    -4.250000000     2.318000000     0.540000000
H    -4.684000000     1.506000000     0.279000000
H    -4.709000000     3.002000000     0.052000000
O    -4.305000000    -1.972000000    -1.301000000
H    -5.042000000    -1.559000000    -1.750000000
H    -4.384000000    -1.681000000    -0.392000000
O    -6.262000000     3.123000000    -1.518000000
H    -6.162000000     2.947000000    -2.453000000
H    -7.143000000     2.813000000    -1.309000000
O     4.795000000    -1.054000000     0.305000000
H     3.948000000    -1.258000000     0.701000000
H     5.338000000    -1.820000000     0.490000000
O    -0.785000000    -3.965000000    -1.186000000
H    -0.949000000    -3.476000000    -1.992000000
H    -1.253000000    -4.791000000    -1.307000000
O    -3.511000000     0.782000000    -4.095000000
H    -3.457000000    -0.173000000    -4.043000000
H    -2.661000000     1.088000000    -3.779000000
O     1.704000000    -3.927000000    -0.221000000
H     2.070000000    -3.124000000    -0.592000000
H     0.804000000    -3.952000000    -0.546000000
O     4.907000000     2.985000000    -3.684000000
H     4.048000000     2.864000000    -3.279000000
H     5.046000000     3.932000000    -3.674000000
O    -1.011000000     2.372000000     6.073000000
H    -0.705000000     1.548000000     6.452000000
H    -1.798000000     2.588000000     6.572000000
O    -0.859000000    -4.014000000     1.709000000
H    -0.741000000    -3.544000000     0.884000000
H    -1.590000000    -4.610000000     1.544000000
O    -1.147000000     1.710000000    -6.009000000
H    -0.927000000     1.765000000    -5.079000000
H    -0.850000000     2.542000000    -6.375000000
O    -5.756000000     0.073000000    -2.550000000
H    -5.270000000     0.657000000    -3.133000000
H    -6.666000000     0.151000000    -2.837000000
