158
-3034.70256
C    -1.346000000     0.445000000    -0.269000000
H    -2.345000000     0.846000000    -0.418000000
C    -0.799000000     0.371000000     0.958000000
H    -1.331000000     0.674000000     1.856000000
C     0.449000000    -0.192000000     1.156000000
H     0.846000000    -0.302000000     2.161000000
C     1.198000000    -0.457000000     0.027000000
H     2.232000000    -0.782000000     0.111000000
C     0.668000000    -0.352000000    -1.270000000
H     1.286000000    -0.657000000    -2.110000000
C    -0.672000000     0.132000000    -1.407000000
C    -1.311000000     0.370000000    -2.778000000
O    -0.733000000    -0.066000000    -3.762000000
O    -2.310000000     1.052000000    -2.953000000
O    -2.613000000    -3.593000000    -2.280000000
H    -1.903000000    -3.967000000    -1.758000000
H    -3.188000000    -3.176000000    -1.638000000
O    -4.017000000    -2.875000000    -0.104000000
H    -4.740000000    -2.248000000    -0.097000000
H    -3.593000000    -2.761000000     0.747000000
O    -4.572000000    -2.539000000    -4.114000000
H    -3.953000000    -3.228000000    -4.354000000
H    -5.201000000    -2.520000000    -4.836000000
O     2.656000000     2.230000000    -4.615000000
H     3.431000000     2.051000000    -5.147000000
H     1.934000000     1.831000000    -5.101000000
O     1.069000000    -2.919000000    -7.094000000
H     0.638000000    -3.529000000    -6.495000000
H     0.364000000    -2.351000000    -7.406000000
O     2.841000000     0.094000000    -7.956000000
H     3.247000000    -0.736000000    -8.209000000
H     2.430000000    -0.089000000    -7.111000000
O     3.834000000    -0.878000000    -4.699000000
H     4.025000000    -0.372000000    -3.910000000
H     2.943000000    -0.621000000    -4.939000000
O    -1.956000000     2.566000000    -5.024000000
H    -1.380000000     3.307000000    -4.835000000
H    -2.093000000     2.146000000    -4.175000000
O     1.001000000    -2.785000000     3.919000000
H     1.742000000    -2.317000000     3.534000000
H     0.813000000    -3.489000000     3.299000000
O    -2.751000000    -1.679000000     7.079000000
H    -3.127000000    -1.153000000     6.373000000
H    -1.826000000    -1.762000000     6.849000000
O     2.995000000    -5.522000000    -1.626000000
H     3.411000000    -4.705000000    -1.899000000
H     3.066000000    -6.094000000    -2.391000000
O     4.358000000     3.631000000     4.255000000
H     4.866000000     3.832000000     3.469000000
H     3.568000000     4.165000000     4.173000000
O     0.017000000     4.363000000     4.391000000
H     0.247000000     4.463000000     5.315000000
H     0.792000000     3.967000000     3.992000000
O     4.713000000    -1.970000000    -0.036000000
H     5.042000000    -2.668000000     0.530000000
H     4.508000000    -2.409000000    -0.862000000
O     0.146000000     3.171000000     0.329000000
H     0.078000000     2.285000000    -0.026000000
H    -0.760000000     3.435000000     0.487000000
O    -3.599000000     0.023000000    -6.057000000
H    -4.141000000     0.768000000    -5.798000000
H    -3.066000000    -0.166000000    -5.285000000
O    -6.401000000     1.936000000    -3.630000000
H    -6.816000000     2.373000000    -2.887000000
H    -5.869000000     1.245000000    -3.236000000
O    -2.968000000    -2.731000000    -6.983000000
H    -2.324000000    -2.952000000    -6.310000000
H    -3.502000000    -2.043000000    -6.586000000
O     2.288000000     3.235000000     2.146000000
H     2.422000000     4.162000000     2.347000000
H     1.647000000     3.234000000     1.436000000
O    -4.801000000     0.087000000    -2.725000000
H    -4.681000000    -0.849000000    -2.884000000
H    -3.915000000     0.449000000    -2.745000000
O     3.386000000    -1.641000000     3.021000000
H     4.221000000    -1.883000000     2.621000000
H     3.402000000    -0.685000000     3.049000000
O    -2.913000000     6.118000000    -2.659000000
H    -2.571000000     5.224000000    -2.659000000
H    -3.593000000     6.114000000    -1.986000000
O     4.944000000     2.972000000    -0.015000000
H     4.151000000     2.931000000    -0.549000000
H     5.018000000     2.100000000     0.373000000
O    -1.678000000    -2.700000000    -4.716000000
H    -1.775000000    -3.322000000    -3.995000000
H    -1.620000000    -1.846000000    -4.288000000
O     1.222000000     0.154000000    -5.467000000
H     0.709000000     0.440000000    -6.223000000
H     0.568000000    -0.089000000    -4.812000000
O    -0.335000000    -1.591000000     5.982000000
H     0.213000000    -2.120000000     5.402000000
H    -0.171000000    -0.688000000     5.708000000
O    -4.818000000     3.588000000    -5.822000000
H    -5.289000000     3.099000000    -5.148000000
H    -3.893000000     3.437000000    -5.625000000
O     1.747000000    -4.169000000     1.246000000
H     1.796000000    -5.033000000     1.656000000
H     2.626000000    -3.804000000     1.350000000
O     4.366000000    -0.003000000    -2.293000000
H     5.006000000     0.702000000    -2.194000000
H     4.635000000    -0.662000000    -1.653000000
O    -5.672000000    -0.821000000    -0.213000000
H    -5.285000000    -0.277000000    -0.899000000
H    -6.489000000    -0.375000000     0.014000000
O     0.067000000     1.109000000     5.416000000
H    -0.266000000     1.748000000     6.046000000
H     0.839000000     1.528000000     5.036000000
O     3.912000000    -3.102000000    -2.791000000
H     4.696000000    -3.436000000    -3.227000000
H     3.731000000    -2.270000000    -3.228000000
O    -2.902000000     2.415000000     3.597000000
H    -3.387000000     1.958000000     4.283000000
H    -2.381000000     3.067000000     4.065000000
O    -0.550000000    -3.006000000     0.403000000
H    -0.309000000    -2.088000000     0.277000000
H     0.244000000    -3.416000000     0.746000000
O    -3.609000000    -0.558000000     4.135000000
H    -3.141000000     0.234000000     3.869000000
H    -3.549000000    -1.138000000     3.376000000
O     3.595000000     1.051000000     3.335000000
H     3.971000000     1.366000000     4.157000000
H     3.120000000     1.804000000     2.985000000
O    -3.329000000     3.483000000     0.792000000
H    -2.760000000     3.259000000     1.528000000
H    -4.213000000     3.472000000     1.160000000
O     6.370000000    -1.983000000     3.287000000
H     6.564000000    -2.198000000     4.199000000
H     7.188000000    -1.620000000     2.947000000
O    -0.981000000     1.219000000    -7.181000000
H    -0.952000000     1.940000000    -7.810000000
H    -1.348000000     1.609000000    -6.387000000
O     0.122000000     4.223000000    -4.691000000
H    -0.025000000     5.154000000    -4.524000000
H     0.770000000     3.963000000    -4.036000000
O    -4.430000000     5.713000000    -0.492000000
H    -3.903000000     5.082000000    -0.001000000
H    -5.333000000     5.426000000    -0.358000000
O     1.492000000    -4.225000000     6.287000000
H     1.439000000    -5.144000000     6.023000000
H     1.682000000    -3.754000000     5.475000000
O     0.136000000    -4.914000000    -1.534000000
H     0.179000000    -4.186000000    -0.914000000
H     1.051000000    -5.139000000    -1.703000000
O     5.131000000     0.412000000     1.152000000
H     4.933000000    -0.405000000     0.695000000
H     4.482000000     0.457000000     1.854000000
O    -2.400000000     3.624000000    -2.026000000
H    -2.340000000     2.733000000    -2.373000000
H    -2.995000000     3.551000000    -1.280000000
O    -3.274000000    -2.671000000     2.491000000
H    -2.440000000    -2.939000000     2.877000000
H    -3.810000000    -3.464000000     2.507000000
O     2.862000000     2.353000000    -1.828000000
H     2.798000000     2.109000000    -2.752000000
H     2.201000000     1.816000000    -1.392000000
O     3.294000000     0.056000000     6.103000000
H     3.579000000    -0.619000000     6.717000000
H     2.982000000    -0.430000000     5.339000000
