158
-3045.14518
C    -0.838000000     1.021000000    -0.575000000
H    -1.602000000     1.743000000    -0.851000000
C    -1.042000000     0.440000000     0.682000000
H    -1.827000000     0.773000000     1.357000000
C    -0.171000000    -0.567000000     0.994000000
H    -0.294000000    -1.023000000     2.013000000
C     0.817000000    -1.081000000     0.212000000
H     1.488000000    -1.851000000     0.583000000
C     1.094000000    -0.420000000    -0.952000000
H     1.932000000    -0.690000000    -1.589000000
C     0.206000000     0.615000000    -1.407000000
C     0.437000000     1.470000000    -2.705000000
O     1.407000000     1.078000000    -3.428000000
O    -0.090000000     2.583000000    -2.796000000
O    -1.326000000     6.271000000    -4.165000000
H    -0.649000000     6.661000000    -3.611000000
H    -2.061000000     6.881000000    -4.111000000
O     0.028000000     4.812000000    -7.561000000
H     0.070000000     5.761000000    -7.437000000
H     0.450000000     4.451000000    -6.782000000
O     0.987000000     1.080000000    -7.885000000
H     1.791000000     1.165000000    -7.373000000
H     0.282000000     1.207000000    -7.250000000
O     3.801000000     2.416000000    -2.900000000
H     4.098000000     1.822000000    -2.211000000
H     2.942000000     2.079000000    -3.154000000
O    -5.504000000    -1.443000000     3.150000000
H    -6.089000000    -1.308000000     3.895000000
H    -4.871000000    -0.727000000     3.211000000
O     2.776000000    -1.252000000    -4.076000000
H     2.573000000    -0.357000000    -3.807000000
H     1.968000000    -1.569000000    -4.481000000
O    -3.450000000     0.210000000     3.678000000
H    -2.593000000     0.425000000     4.047000000
H    -3.471000000     0.669000000     2.838000000
O     3.772000000    -2.572000000    -6.498000000
H     4.495000000    -1.965000000    -6.657000000
H     3.484000000    -2.373000000    -5.607000000
O    -0.712000000     3.707000000     5.149000000
H    -0.830000000     2.807000000     4.845000000
H    -1.412000000     3.837000000     5.788000000
O     2.721000000    -3.886000000     5.182000000
H     2.621000000    -4.724000000     4.729000000
H     1.830000000    -3.542000000     5.247000000
O     2.158000000    -5.188000000     2.170000000
H     1.843000000    -6.053000000     2.430000000
H     2.606000000    -5.337000000     1.338000000
O     0.547000000     1.921000000     2.542000000
H     0.200000000     1.623000000     1.701000000
H     1.380000000     2.338000000     2.323000000
O    -1.685000000    -7.043000000     1.920000000
H    -1.307000000    -6.200000000     2.170000000
H    -2.256000000    -7.276000000     2.652000000
O     5.694000000     0.127000000    -4.303000000
H     6.371000000    -0.440000000    -4.672000000
H     5.915000000     0.192000000    -3.374000000
O     0.276000000    -2.676000000     4.942000000
H    -0.221000000    -2.479000000     5.737000000
H     0.583000000    -1.823000000     4.634000000
O    -2.437000000     3.857000000    -2.290000000
H    -2.783000000     4.185000000    -3.121000000
H    -1.601000000     3.454000000    -2.522000000
O    -2.498000000     0.272000000    -3.628000000
H    -3.411000000    -0.008000000    -3.703000000
H    -2.137000000    -0.276000000    -2.931000000
O    -2.668000000    -3.315000000    -3.893000000
H    -2.964000000    -3.504000000    -3.002000000
H    -2.315000000    -2.426000000    -3.844000000
O    -0.772000000     1.225000000    -5.722000000
H    -1.314000000     0.825000000    -5.042000000
H    -0.324000000     1.945000000    -5.279000000
O    -1.501000000     4.424000000     2.312000000
H    -0.950000000     3.753000000     2.715000000
H    -1.308000000     5.221000000     2.806000000
O     2.706000000     4.741000000    -5.741000000
H     2.836000000     5.525000000    -5.208000000
H     1.934000000     4.320000000    -5.362000000
O     3.030000000     2.764000000     1.546000000
H     3.226000000     1.827000000     1.573000000
H     2.631000000     2.900000000     0.687000000
O     4.253000000    -3.088000000    -2.719000000
H     5.191000000    -3.081000000    -2.911000000
H     3.852000000    -2.648000000    -3.469000000
O     1.834000000    -0.291000000     4.050000000
H     1.856000000     0.410000000     3.399000000
H     2.666000000    -0.211000000     4.516000000
O    -2.622000000    -1.684000000     5.631000000
H    -3.044000000    -2.442000000     5.225000000
H    -2.772000000    -0.968000000     5.014000000
O    -4.697000000     3.057000000     4.160000000
H    -4.183000000     2.791000000     3.398000000
H    -5.286000000     2.320000000     4.321000000
O    -4.424000000    -0.640000000     0.475000000
H    -3.874000000    -1.136000000     1.082000000
H    -4.774000000    -1.299000000    -0.124000000
O     4.604000000     0.821000000    -1.001000000
H     4.381000000     0.946000000    -0.079000000
H     5.366000000     0.241000000    -0.987000000
O     1.087000000     3.647000000    -0.284000000
H     1.227000000     3.603000000    -1.230000000
H     0.142000000     3.543000000    -0.176000000
O    -2.488000000     3.662000000    -7.002000000
H    -2.134000000     2.773000000    -7.004000000
H    -1.733000000     4.221000000    -7.182000000
O    -3.442000000     4.248000000     0.488000000
H    -3.105000000     4.248000000    -0.408000000
H    -2.698000000     4.527000000     1.023000000
O    -2.458000000    -2.497000000     1.204000000
H    -1.615000000    -2.726000000     0.813000000
H    -2.827000000    -3.334000000     1.484000000
O    -0.883000000     0.721000000     4.702000000
H    -0.314000000     0.640000000     5.466000000
H    -0.286000000     0.894000000     3.974000000
O     2.670000000     1.374000000    -5.986000000
H     3.530000000     1.588000000    -5.623000000
H     2.084000000     1.375000000    -5.230000000
O     3.348000000     0.146000000     1.593000000
H     2.685000000    -0.521000000     1.417000000
H     4.092000000    -0.343000000     1.945000000
O     3.940000000    -4.204000000    -0.244000000
H     3.849000000    -3.478000000     0.373000000
H     3.990000000    -3.784000000    -1.103000000
O     1.816000000     6.629000000    -0.417000000
H     1.724000000     5.689000000    -0.262000000
H     2.733000000     6.741000000    -0.670000000
O    -2.183000000    -1.551000000    -1.645000000
H    -2.502000000    -2.404000000    -1.349000000
H    -2.179000000    -1.010000000    -0.855000000
O    -4.874000000     2.052000000    -1.456000000
H    -3.930000000     2.169000000    -1.563000000
H    -5.250000000     2.371000000    -2.277000000
O     5.899000000     3.823000000    -1.473000000
H     5.174000000     3.323000000    -1.848000000
H     6.352000000     3.199000000    -0.906000000
O     3.600000000    -2.630000000     2.086000000
H     3.091000000    -3.282000000     2.567000000
H     4.387000000    -2.501000000     2.616000000
O     0.316000000     4.107000000    -4.827000000
H     0.081000000     3.489000000    -4.135000000
H    -0.157000000     4.908000000    -4.602000000
O     0.370000000     0.296000000     7.227000000
H     0.332000000    -0.447000000     7.829000000
H     0.897000000     0.950000000     7.687000000
O    -2.924000000    -4.379000000     4.422000000
H    -2.628000000    -4.638000000     5.294000000
H    -2.187000000    -4.587000000     3.847000000
O    -4.549000000     1.702000000     1.765000000
H    -4.747000000     0.901000000     1.281000000
H    -4.284000000     2.329000000     1.092000000
O     0.237000000    -1.745000000    -5.344000000
H    -0.648000000    -2.071000000    -5.510000000
H     0.147000000    -0.792000000    -5.356000000
O    -0.481000000    -4.640000000     3.070000000
H    -0.406000000    -3.854000000     3.611000000
H     0.394000000    -4.760000000     2.700000000
O     4.875000000     3.025000000    -5.363000000
H     4.557000000     2.877000000    -4.473000000
H     4.301000000     3.708000000    -5.711000000
