158
-3041.85021
C    -0.693000000     0.217000000    -1.310000000
H    -1.070000000     0.456000000    -2.301000000
C     0.659000000     0.202000000    -1.089000000
H     1.365000000     0.529000000    -1.848000000
C     1.188000000     0.028000000     0.220000000
H     2.275000000     0.162000000     0.343000000
C     0.399000000    -0.308000000     1.257000000
H     0.805000000    -0.365000000     2.264000000
C    -0.991000000    -0.360000000     1.056000000
H    -1.725000000    -0.509000000     1.844000000
C    -1.531000000    -0.053000000    -0.211000000
C    -3.039000000    -0.072000000    -0.483000000
O    -3.817000000    -0.080000000     0.475000000
O    -3.485000000    -0.187000000    -1.609000000
O    -3.136000000    -1.123000000     4.711000000
H    -3.417000000    -0.759000000     5.550000000
H    -3.766000000    -0.778000000     4.078000000
O     1.805000000     3.503000000    -6.072000000
H     2.557000000     3.056000000    -6.461000000
H     1.098000000     2.858000000    -6.108000000
O    -2.570000000     2.594000000     3.062000000
H    -2.925000000     3.479000000     3.148000000
H    -2.018000000     2.632000000     2.281000000
O    -0.337000000     3.138000000     1.184000000
H    -0.163000000     2.255000000     0.859000000
H     0.114000000     3.175000000     2.028000000
O     3.730000000     0.885000000    -3.998000000
H     3.580000000     0.311000000    -4.750000000
H     3.900000000     1.744000000    -4.384000000
O     3.764000000    -0.733000000    -6.434000000
H     3.271000000    -1.321000000    -5.863000000
H     3.866000000    -1.221000000    -7.251000000
O    -6.390000000    -0.897000000     2.752000000
H    -5.850000000    -1.568000000     2.336000000
H    -6.058000000    -0.071000000     2.401000000
O    -3.660000000    -4.837000000    -0.124000000
H    -3.842000000    -5.347000000     0.666000000
H    -4.131000000    -5.296000000    -0.819000000
O    -3.216000000    -1.710000000    -3.589000000
H    -4.093000000    -2.090000000    -3.531000000
H    -3.180000000    -1.081000000    -2.868000000
O     2.749000000     5.436000000     2.500000000
H     3.684000000     5.530000000     2.321000000
H     2.319000000     5.895000000     1.778000000
O    -8.986000000    -0.689000000     1.684000000
H    -8.166000000    -0.690000000     2.178000000
H    -9.480000000    -1.427000000     2.040000000
O     1.827000000    -1.777000000    -4.963000000
H     0.900000000    -1.598000000    -5.122000000
H     1.828000000    -2.407000000    -4.242000000
O     4.723000000     4.293000000    -0.919000000
H     3.863000000     4.269000000    -1.338000000
H     4.855000000     3.402000000    -0.592000000
O     5.438000000    -0.132000000     2.844000000
H     4.543000000    -0.060000000     3.177000000
H     5.970000000    -0.298000000     3.622000000
O    -1.471000000     4.895000000    -3.107000000
H    -1.853000000     5.770000000    -3.161000000
H    -2.213000000     4.321000000    -2.916000000
O    -7.865000000    -1.085000000    -0.673000000
H    -8.254000000    -0.960000000     0.192000000
H    -8.212000000    -0.365000000    -1.199000000
O     1.902000000     0.919000000     4.410000000
H     2.157000000    -0.002000000     4.451000000
H     0.945000000     0.903000000     4.417000000
O    -2.578000000    -4.085000000    -2.613000000
H    -2.670000000    -3.199000000    -2.964000000
H    -2.119000000    -3.967000000    -1.781000000
O    -5.724000000     4.013000000     2.555000000
H    -5.570000000     3.071000000     2.481000000
H    -5.032000000     4.410000000     2.027000000
O    -5.763000000    -3.911000000     3.409000000
H    -5.457000000    -3.343000000     2.701000000
H    -6.695000000    -3.710000000     3.491000000
O    -0.922000000    -1.973000000    -5.186000000
H    -0.703000000    -2.840000000    -4.845000000
H    -1.665000000    -1.687000000    -4.653000000
O    -5.044000000     5.244000000    -1.033000000
H    -4.814000000     5.788000000    -1.787000000
H    -4.576000000     4.422000000    -1.180000000
O     1.133000000     3.260000000     3.423000000
H     1.839000000     3.877000000     3.229000000
H     1.579000000     2.431000000     3.593000000
O     4.650000000    -3.299000000    -1.425000000
H     4.729000000    -2.358000000    -1.263000000
H     4.034000000    -3.605000000    -0.759000000
O     0.090000000     5.028000000    -0.697000000
H    -0.252000000     4.486000000     0.014000000
H    -0.676000000     5.228000000    -1.235000000
O     5.482000000    -2.351000000     1.326000000
H     6.315000000    -2.709000000     1.635000000
H     5.336000000    -1.578000000     1.871000000
O    -4.892000000    -2.517000000     1.117000000
H    -4.558000000    -1.635000000     0.954000000
H    -4.436000000    -3.067000000     0.480000000
O     0.846000000    -3.389000000     3.797000000
H     0.156000000    -3.785000000     3.265000000
H     0.379000000    -2.955000000     4.511000000
O    -0.742000000     0.402000000     4.804000000
H    -1.344000000    -0.336000000     4.711000000
H    -1.272000000     1.096000000     5.196000000
O     7.275000000    -0.921000000    -1.682000000
H     6.344000000    -0.704000000    -1.635000000
H     7.689000000    -0.344000000    -1.041000000
O     3.092000000    -4.163000000     1.455000000
H     3.776000000    -3.500000000     1.361000000
H     2.941000000    -4.220000000     2.399000000
O     6.626000000     3.264000000     3.285000000
H     6.092000000     3.863000000     2.763000000
H     6.648000000     3.659000000     4.156000000
O    -0.886000000    -4.185000000    -0.031000000
H    -0.583000000    -4.606000000     0.773000000
H    -1.836000000    -4.128000000     0.072000000
O     2.516000000     3.069000000     6.337000000
H     3.391000000     3.235000000     6.687000000
H     2.610000000     2.261000000     5.831000000
O    -7.149000000    -4.532000000     0.071000000
H    -7.212000000    -4.335000000    -0.863000000
H    -6.349000000    -4.089000000     0.355000000
O    -0.387000000     1.854000000    -6.188000000
H    -1.228000000     2.214000000    -6.470000000
H    -0.620000000     1.100000000    -5.646000000
O     1.696000000    -2.716000000    -1.390000000
H     1.605000000    -1.876000000    -1.838000000
H     1.198000000    -2.611000000    -0.579000000
O     4.701000000    -0.337000000    -1.718000000
H     4.624000000     0.354000000    -1.059000000
H     4.321000000     0.044000000    -2.509000000
O     5.507000000     5.444000000     1.457000000
H     5.432000000     5.012000000     0.606000000
H     5.663000000     6.364000000     1.246000000
O    -3.573000000     2.858000000    -2.552000000
H    -4.377000000     2.613000000    -3.010000000
H    -3.201000000     2.026000000    -2.260000000
O     5.495000000     1.537000000     0.188000000
H     5.458000000     1.598000000     1.142000000
H     6.289000000     1.032000000     0.011000000
O     2.964000000    -1.554000000     4.220000000
H     3.657000000    -1.998000000     4.710000000
H     2.292000000    -2.224000000     4.095000000
O    -5.806000000     2.273000000    -3.818000000
H    -6.328000000     1.620000000    -3.351000000
H    -5.862000000     2.011000000    -4.737000000
O     2.124000000     3.416000000    -2.124000000
H     1.595000000     4.042000000    -1.629000000
H     1.540000000     2.671000000    -2.269000000
O    -5.132000000     1.510000000     2.079000000
H    -4.883000000     1.206000000     1.207000000
H    -4.334000000     1.423000000     2.600000000
O    -5.932000000    -0.102000000    -2.377000000
H    -5.158000000    -0.281000000    -1.843000000
H    -6.657000000    -0.486000000    -1.884000000
O    -5.945000000    -2.253000000    -4.205000000
H    -6.084000000    -1.540000000    -3.582000000
H    -6.773000000    -2.321000000    -4.679000000
O    -1.598000000    -3.114000000     5.332000000
H    -2.168000000    -2.378000000     5.110000000
H    -2.123000000    -3.891000000     5.137000000
