158
-3047.86128
C    -1.320000000    -0.063000000    -0.674000000
H    -2.275000000     0.180000000    -1.132000000
C    -1.152000000     0.426000000     0.626000000
H    -1.912000000     0.896000000     1.245000000
C     0.169000000     0.491000000     1.146000000
H     0.319000000     0.923000000     2.153000000
C     1.244000000    -0.041000000     0.400000000
H     2.259000000    -0.166000000     0.768000000
C     1.045000000    -0.522000000    -0.869000000
H     1.847000000    -1.003000000    -1.423000000
C    -0.215000000    -0.569000000    -1.465000000
C    -0.347000000    -1.046000000    -2.938000000
O     0.563000000    -0.853000000    -3.680000000
O    -1.338000000    -1.626000000    -3.326000000
O    -1.117000000    -3.912000000    -4.684000000
H    -0.700000000    -4.568000000    -4.125000000
H    -1.181000000    -3.133000000    -4.133000000
O    -3.218000000    -3.203000000    -2.316000000
H    -2.555000000    -2.537000000    -2.498000000
H    -2.875000000    -3.682000000    -1.561000000
O     4.327000000     4.189000000     4.496000000
H     4.141000000     4.235000000     3.559000000
H     3.515000000     3.868000000     4.887000000
O     2.248000000    -1.222000000    -7.640000000
H     1.968000000    -1.734000000    -6.882000000
H     3.073000000    -0.820000000    -7.366000000
O     2.050000000     1.357000000    -3.285000000
H     2.467000000     1.618000000    -4.106000000
H     1.759000000     0.458000000    -3.440000000
O    -4.328000000     0.099000000    -7.073000000
H    -4.275000000    -0.232000000    -6.176000000
H    -3.600000000     0.716000000    -7.144000000
O     0.925000000     3.729000000    -4.900000000
H     1.251000000     4.239000000    -5.641000000
H     0.712000000     2.873000000    -5.272000000
O     0.849000000    -3.413000000     4.148000000
H     1.213000000    -3.782000000     4.954000000
H     1.020000000    -2.474000000     4.216000000
O    -4.166000000    -2.487000000     1.787000000
H    -4.643000000    -2.230000000     0.998000000
H    -4.836000000    -2.855000000     2.363000000
O    -2.814000000     4.448000000    -3.760000000
H    -2.491000000     3.742000000    -3.200000000
H    -2.296000000     4.374000000    -4.562000000
O     4.516000000    -1.581000000    -5.403000000
H     4.674000000    -2.126000000    -4.632000000
H     3.701000000    -1.920000000    -5.773000000
O    -3.249000000     0.303000000     5.878000000
H    -3.587000000     0.422000000     4.991000000
H    -2.365000000    -0.042000000     5.754000000
O     5.306000000    -3.325000000    -3.491000000
H     6.150000000    -3.447000000    -3.056000000
H     4.666000000    -3.332000000    -2.779000000
O    -5.634000000    -1.065000000    -2.667000000
H    -6.316000000    -1.728000000    -2.554000000
H    -4.826000000    -1.569000000    -2.768000000
O     2.091000000    -0.853000000     3.923000000
H     2.316000000    -0.208000000     3.252000000
H     2.895000000    -1.358000000     4.048000000
O    -2.190000000    -5.003000000    -0.371000000
H    -1.493000000    -4.454000000    -0.012000000
H    -2.568000000    -5.440000000     0.392000000
O    -4.125000000    -4.674000000    -4.484000000
H    -3.888000000    -4.055000000    -3.793000000
H    -3.299000000    -5.093000000    -4.724000000
O     5.125000000     1.743000000    -0.852000000
H     5.079000000     1.923000000     0.087000000
H     5.623000000     0.928000000    -0.916000000
O     1.315000000     4.166000000     1.176000000
H     1.042000000     3.586000000     0.465000000
H     0.986000000     5.028000000     0.920000000
O    -3.332000000    -1.405000000    -4.927000000
H    -3.433000000    -2.342000000    -4.765000000
H    -2.710000000    -1.112000000    -4.261000000
O    -4.612000000     4.747000000    -0.468000000
H    -3.788000000     4.564000000    -0.018000000
H    -5.019000000     5.441000000     0.051000000
O    -5.819000000     0.666000000     1.864000000
H    -6.766000000     0.804000000     1.842000000
H    -5.543000000     0.749000000     0.952000000
O    -1.958000000    -1.126000000    -7.755000000
H    -1.927000000    -1.982000000    -8.183000000
H    -2.542000000    -1.254000000    -7.007000000
O    -4.333000000     3.373000000     4.955000000
H    -3.384000000     3.276000000     4.887000000
H    -4.482000000     4.317000000     4.907000000
O     0.866000000     2.758000000    -1.197000000
H     0.822000000     1.876000000    -0.828000000
H     1.472000000     2.679000000    -1.934000000
O     0.490000000    -0.135000000     5.816000000
H     0.950000000    -0.222000000     4.981000000
H     1.140000000     0.242000000     6.409000000
O     5.025000000    -0.250000000    -3.066000000
H     4.225000000     0.274000000    -3.113000000
H     5.160000000    -0.560000000    -3.961000000
O    -5.006000000     0.945000000    -0.664000000
H    -4.228000000     1.493000000    -0.760000000
H    -5.047000000     0.443000000    -1.478000000
O     1.730000000    -2.707000000    -5.203000000
H     1.101000000    -3.406000000    -5.381000000
H     1.297000000    -2.156000000    -4.551000000
O    -2.585000000     1.468000000    -3.690000000
H    -2.029000000     1.277000000    -4.445000000
H    -1.979000000     1.783000000    -3.020000000
O     2.232000000    -4.037000000    -0.364000000
H     2.832000000    -3.302000000    -0.492000000
H     2.584000000    -4.505000000     0.393000000
O     4.994000000     1.834000000     1.911000000
H     4.503000000     2.656000000     1.917000000
H     5.422000000     1.805000000     2.767000000
O     0.207000000     0.387000000    -8.518000000
H    -0.680000000     0.044000000    -8.411000000
H     0.754000000    -0.196000000    -7.991000000
O    -3.447000000     0.322000000     3.067000000
H    -3.117000000    -0.520000000     2.752000000
H    -4.321000000     0.395000000     2.684000000
O    -4.931000000     2.590000000    -4.842000000
H    -5.060000000     3.076000000    -4.028000000
H    -4.080000000     2.166000000    -4.735000000
O     4.572000000    -1.820000000     1.670000000
H     4.654000000    -2.689000000     2.063000000
H     5.323000000    -1.333000000     2.008000000
O    -0.083000000     1.302000000    -5.865000000
H    -0.232000000     0.510000000    -5.349000000
H    -0.683000000     1.221000000    -6.607000000
O    -2.016000000     4.144000000     1.399000000
H    -1.122000000     4.486000000     1.398000000
H    -2.270000000     4.141000000     2.322000000
O     0.875000000    -5.768000000    -2.938000000
H     0.920000000    -5.056000000    -2.300000000
H     1.746000000    -6.166000000    -2.914000000
O    -2.060000000     2.610000000     3.900000000
H    -1.168000000     2.421000000     3.609000000
H    -2.597000000     1.937000000     3.481000000
O     4.314000000    -2.101000000    -1.135000000
H     4.357000000    -1.829000000    -0.218000000
H     4.416000000    -1.288000000    -1.631000000
O     0.061000000    -3.946000000     1.260000000
H     0.582000000    -3.980000000     0.457000000
H     0.552000000    -3.364000000     1.840000000
O    -1.766000000     3.147000000    -1.576000000
H    -0.868000000     3.110000000    -1.248000000
H    -2.235000000     3.675000000    -0.931000000
O    -0.546000000     3.208000000     6.968000000
H    -1.462000000     2.933000000     6.942000000
H    -0.085000000     2.468000000     7.365000000
O     0.593000000     2.862000000     3.578000000
H     0.843000000     3.405000000     2.830000000
H     0.981000000     3.303000000     4.334000000
O     3.910000000     4.355000000     1.863000000
H     4.347000000     4.823000000     1.151000000
H     2.991000000     4.321000000     1.598000000
O    -1.163000000    -3.756000000    -7.679000000
H    -1.335000000    -3.566000000    -6.757000000
H    -1.673000000    -4.545000000    -7.861000000
O     2.746000000     1.631000000    -6.731000000
H     2.315000000     2.468000000    -6.904000000
H     2.093000000     0.972000000    -6.964000000
