158
-2999.74360
C    -1.117000000     0.771000000    -0.421000000
H    -2.074000000     1.224000000    -0.666000000
C    -0.867000000     0.454000000     0.888000000
H    -1.518000000     0.646000000     1.737000000
C     0.192000000    -0.354000000     1.111000000
H     0.485000000    -0.657000000     2.141000000
C     1.109000000    -0.685000000     0.131000000
H     2.007000000    -1.213000000     0.442000000
C     0.957000000    -0.114000000    -1.118000000
H     1.699000000    -0.250000000    -1.900000000
C    -0.212000000     0.515000000    -1.444000000
C    -0.447000000     0.924000000    -2.836000000
O    -1.359000000     1.693000000    -3.161000000
O     0.299000000     0.696000000    -3.745000000
O    -1.835000000    -2.606000000     2.716000000
H    -1.639000000    -1.702000000     2.469000000
H    -2.791000000    -2.650000000     2.722000000
O     2.508000000    -1.892000000    -4.535000000
H     3.272000000    -1.324000000    -4.633000000
H     1.792000000    -1.296000000    -4.316000000
O     2.047000000     4.935000000     0.925000000
H     2.825000000     4.974000000     0.369000000
H     1.774000000     4.018000000     0.890000000
O     1.110000000    -0.605000000    -7.506000000
H     0.635000000    -1.048000000    -6.803000000
H     1.679000000     0.018000000    -7.054000000
O     1.473000000    -3.899000000    -5.983000000
H     1.832000000    -3.103000000    -5.590000000
H     1.408000000    -4.517000000    -5.256000000
O     0.182000000     3.012000000    -6.503000000
H     0.779000000     3.664000000    -6.869000000
H     0.683000000     2.196000000    -6.510000000
O     2.030000000     3.583000000    -1.939000000
H     1.872000000     4.483000000    -2.224000000
H     1.307000000     3.082000000    -2.317000000
O     1.948000000     5.725000000    -4.093000000
H     1.068000000     5.353000000    -4.033000000
H     1.809000000     6.672000000    -4.073000000
O    -3.767000000    -0.531000000     2.735000000
H    -4.081000000    -1.430000000     2.641000000
H    -4.459000000    -0.085000000     3.223000000
O     2.728000000    -5.191000000    -3.874000000
H     3.674000000    -5.314000000    -3.954000000
H     2.620000000    -4.252000000    -3.721000000
O     2.165000000    -2.289000000     7.769000000
H     2.244000000    -1.855000000     8.619000000
H     2.360000000    -1.603000000     7.131000000
O    -4.797000000    -3.082000000     2.404000000
H    -4.410000000    -3.954000000     2.328000000
H    -5.637000000    -3.228000000     2.840000000
O     4.914000000    -0.231000000    -4.207000000
H     5.407000000    -1.047000000    -4.121000000
H     5.013000000     0.200000000    -3.358000000
O    -0.817000000    -6.463000000     3.229000000
H    -1.093000000    -6.186000000     4.103000000
H    -0.432000000    -5.677000000     2.841000000
O    -2.521000000     3.763000000    -1.562000000
H    -2.201000000     2.904000000    -1.837000000
H    -1.772000000     4.171000000    -1.128000000
O    -5.230000000     2.100000000    -0.797000000
H    -5.866000000     2.433000000    -0.164000000
H    -4.669000000     2.851000000    -0.991000000
O    -0.122000000     2.666000000     2.962000000
H     0.316000000     2.879000000     3.786000000
H     0.572000000     2.309000000     2.407000000
O    -3.592000000    -5.292000000     1.801000000
H    -2.920000000    -5.373000000     1.124000000
H    -3.357000000    -5.952000000     2.452000000
O    -1.104000000    -3.290000000    -2.981000000
H    -1.955000000    -3.065000000    -2.605000000
H    -0.510000000    -3.318000000    -2.230000000
O     3.698000000     0.295000000     1.928000000
H     3.210000000     0.154000000     2.740000000
H     4.179000000    -0.521000000     1.794000000
O    -2.456000000     2.645000000    -5.653000000
H    -2.180000000     2.165000000    -4.872000000
H    -1.676000000     2.669000000    -6.207000000
O     0.295000000    -0.856000000     5.793000000
H    -0.513000000    -0.454000000     5.472000000
H     0.001000000    -1.621000000     6.287000000
O    -1.850000000     0.110000000    -7.905000000
H    -0.988000000     0.429000000    -8.173000000
H    -1.715000000    -0.232000000    -7.021000000
O     1.709000000     2.242000000     0.906000000
H     2.224000000     1.602000000     1.397000000
H     1.149000000     1.714000000     0.336000000
O    -2.829000000     5.224000000    -3.999000000
H    -2.618000000     4.875000000    -3.133000000
H    -2.404000000     4.622000000    -4.610000000
O    -5.129000000     1.840000000    -4.041000000
H    -4.499000000     1.124000000    -3.960000000
H    -5.243000000     2.162000000    -3.147000000
O     3.851000000     1.538000000    -1.294000000
H     3.168000000     2.186000000    -1.467000000
H     4.393000000     1.937000000    -0.613000000
O    -5.258000000     3.642000000    -5.982000000
H    -4.317000000     3.769000000    -6.105000000
H    -5.324000000     3.080000000    -5.210000000
O     2.122000000     0.916000000    -5.629000000
H     2.844000000     1.382000000    -5.208000000
H     1.446000000     0.862000000    -4.954000000
O     4.913000000    -3.227000000     0.938000000
H     5.355000000    -4.022000000     1.235000000
H     5.251000000    -2.537000000     1.510000000
O    -4.381000000    -1.122000000    -0.951000000
H    -4.297000000    -0.228000000    -0.618000000
H    -5.292000000    -1.357000000    -0.779000000
O     0.375000000    -3.841000000     3.835000000
H     0.099000000    -3.745000000     4.747000000
H    -0.324000000    -3.428000000     3.328000000
O     2.371000000    -1.317000000     4.110000000
H     2.399000000    -2.226000000     4.408000000
H     1.668000000    -0.919000000     4.623000000
O    -4.790000000     3.745000000     2.672000000
H    -4.523000000     2.898000000     3.029000000
H    -5.421000000     3.527000000     1.986000000
O     2.694000000     0.676000000     7.350000000
H     2.450000000     1.477000000     7.814000000
H     1.917000000     0.449000000     6.839000000
O    -2.289000000    -0.342000000     5.154000000
H    -3.055000000    -0.488000000     5.710000000
H    -2.546000000    -0.683000000     4.298000000
O    -0.420000000     3.946000000    -3.959000000
H    -0.209000000     3.800000000    -4.881000000
H    -0.846000000     3.135000000    -3.679000000
O    -3.786000000    -3.466000000    -2.115000000
H    -4.129000000    -4.249000000    -1.685000000
H    -3.660000000    -2.838000000    -1.404000000
O     2.392000000    -4.883000000     0.483000000
H     3.113000000    -4.294000000     0.260000000
H     2.719000000    -5.391000000     1.226000000
O    -2.787000000     2.273000000     4.288000000
H    -2.891000000     1.424000000     4.718000000
H    -1.933000000     2.221000000     3.859000000
O     4.732000000    -1.135000000    -1.352000000
H     4.360000000    -1.811000000    -0.785000000
H     4.490000000    -0.310000000    -0.932000000
O    -4.085000000    -0.774000000    -4.116000000
H    -4.407000000    -1.101000000    -3.275000000
H    -3.772000000    -1.556000000    -4.572000000
O     3.178000000    -4.308000000     4.658000000
H     2.233000000    -4.322000000     4.810000000
H     3.302000000    -4.837000000     3.870000000
O    -1.283000000     5.033000000     1.952000000
H    -0.934000000     5.235000000     1.084000000
H    -0.885000000     4.193000000     2.181000000
O     0.211000000    -3.680000000    -0.758000000
H     1.069000000    -3.846000000    -0.368000000
H    -0.141000000    -2.944000000    -0.258000000
O     5.740000000     2.081000000     0.878000000
H     6.616000000     2.100000000     1.264000000
H     5.196000000     1.653000000     1.539000000
O    -0.727000000    -1.521000000    -5.120000000
H    -0.593000000    -0.764000000    -4.549000000
H    -0.838000000    -2.258000000    -4.519000000
O     3.942000000     3.568000000    -4.474000000
H     3.424000000     4.351000000    -4.664000000
H     3.660000000     3.300000000    -3.600000000
