158
-3026.13241
C    -1.208000000     0.632000000    -0.531000000
H    -2.040000000     1.225000000    -0.902000000
C    -0.748000000     0.841000000     0.756000000
H    -1.255000000     1.483000000     1.471000000
C     0.414000000     0.089000000     1.128000000
H     0.788000000     0.216000000     2.187000000
C     1.052000000    -0.754000000     0.254000000
H     1.990000000    -1.166000000     0.617000000
C     0.578000000    -0.911000000    -1.024000000
H     1.045000000    -1.587000000    -1.735000000
C    -0.583000000    -0.191000000    -1.415000000
C    -1.079000000    -0.285000000    -2.827000000
O    -1.778000000     0.628000000    -3.267000000
O    -0.891000000    -1.258000000    -3.495000000
O    -3.359000000    -4.735000000    -0.742000000
H    -4.175000000    -4.274000000    -0.936000000
H    -2.737000000    -4.040000000    -0.526000000
O    -0.070000000    -3.821000000    -3.159000000
H     0.797000000    -3.847000000    -2.755000000
H    -0.389000000    -2.935000000    -2.986000000
O    -3.336000000    -2.480000000    -3.743000000
H    -2.448000000    -2.126000000    -3.689000000
H    -3.312000000    -3.270000000    -3.203000000
O     4.330000000     4.051000000     0.755000000
H     4.074000000     4.071000000    -0.167000000
H     4.904000000     3.289000000     0.827000000
O     2.719000000    -1.884000000    -6.427000000
H     2.178000000    -1.103000000    -6.316000000
H     3.119000000    -2.022000000    -5.568000000
O     6.031000000     1.675000000     6.018000000
H     5.409000000     2.397000000     6.112000000
H     5.683000000     1.151000000     5.297000000
O     0.564000000     2.009000000    -4.063000000
H     0.529000000     2.956000000    -4.198000000
H    -0.342000000     1.759000000    -3.882000000
O    -4.278000000     3.785000000    -6.285000000
H    -4.032000000     2.895000000    -6.032000000
H    -4.623000000     4.176000000    -5.483000000
O     0.659000000    -2.985000000     3.962000000
H     0.449000000    -3.325000000     4.832000000
H     1.074000000    -2.138000000     4.130000000
O    -3.553000000    -1.363000000     1.866000000
H    -3.179000000    -0.678000000     1.312000000
H    -4.499000000    -1.261000000     1.769000000
O     4.321000000    -1.550000000    -4.133000000
H     4.927000000    -1.801000000    -3.436000000
H     3.899000000    -0.754000000    -3.808000000
O    -1.638000000     0.840000000     8.245000000
H    -1.675000000     0.430000000     7.381000000
H    -1.279000000     0.162000000     8.816000000
O     6.128000000    -3.087000000    -2.311000000
H     7.025000000    -2.820000000    -2.109000000
H     5.658000000    -2.993000000    -1.483000000
O    -6.221000000     1.919000000    -2.787000000
H    -5.268000000     1.993000000    -2.748000000
H    -6.531000000     2.824000000    -2.810000000
O    -5.517000000    -0.137000000    -0.829000000
H    -5.706000000     0.327000000    -0.013000000
H    -5.962000000     0.375000000    -1.505000000
O     1.508000000    -0.502000000     5.110000000
H     1.495000000     0.405000000     4.802000000
H     2.002000000    -0.469000000     5.930000000
O    -1.760000000    -2.901000000     0.310000000
H    -2.429000000    -2.549000000     0.897000000
H    -1.118000000    -2.196000000     0.229000000
O     5.376000000     1.759000000     2.106000000
H     4.973000000     1.285000000     2.833000000
H     5.359000000     1.140000000     1.377000000
O     2.120000000     4.007000000     2.264000000
H     2.609000000     3.971000000     1.442000000
H     1.532000000     4.754000000     2.161000000
O    -3.426000000     1.023000000    -5.495000000
H    -4.143000000     0.391000000    -5.550000000
H    -2.917000000     0.744000000    -4.735000000
O    -3.961000000     6.136000000     2.276000000
H    -3.159000000     5.659000000     2.490000000
H    -4.592000000     5.854000000     2.937000000
O    -3.960000000     2.688000000     2.993000000
H    -3.610000000     3.494000000     3.373000000
H    -3.766000000     2.760000000     2.059000000
O    -1.177000000     0.803000000    -7.288000000
H    -0.468000000     0.596000000    -6.679000000
H    -1.977000000     0.614000000    -6.798000000
O    -0.843000000     4.627000000     5.911000000
H    -1.115000000     3.713000000     5.824000000
H    -0.968000000     4.998000000     5.037000000
O     1.418000000     2.750000000    -0.754000000
H     1.627000000     1.991000000    -0.209000000
H     1.487000000     2.426000000    -1.652000000
O     0.119000000    -3.204000000     6.721000000
H    -0.801000000    -3.093000000     6.958000000
H     0.597000000    -3.049000000     7.535000000
O     3.400000000     1.195000000    -3.315000000
H     2.552000000     1.464000000    -3.667000000
H     4.039000000     1.713000000    -3.805000000
O     0.453000000     6.243000000     2.550000000
H    -0.327000000     5.722000000     2.360000000
H     0.268000000     6.653000000     3.395000000
O    -3.590000000     3.236000000     0.224000000
H    -3.756000000     2.952000000    -0.675000000
H    -2.673000000     3.511000000     0.222000000
O     0.759000000    -0.237000000    -5.439000000
H     0.772000000     0.667000000    -5.125000000
H     0.259000000    -0.714000000    -4.776000000
O     4.430000000    -1.938000000    -0.260000000
H     3.831000000    -2.626000000     0.032000000
H     5.231000000    -2.088000000     0.241000000
O    -2.019000000    -3.418000000     3.187000000
H    -2.442000000    -2.634000000     2.837000000
H    -1.088000000    -3.196000000     3.215000000
O     4.530000000    -0.235000000     4.103000000
H     5.324000000    -0.728000000     3.895000000
H     3.857000000    -0.904000000     4.228000000
O    -6.221000000     3.661000000     0.307000000
H    -5.280000000     3.506000000     0.391000000
H    -6.610000000     2.787000000     0.314000000
O    -1.399000000    -0.716000000     5.836000000
H    -1.561000000    -1.607000000     6.148000000
H    -0.511000000    -0.745000000     5.481000000
O     4.374000000    -4.108000000     3.973000000
H     4.272000000    -4.887000000     4.519000000
H     4.616000000    -3.415000000     4.588000000
O    -3.367000000     2.653000000    -2.409000000
H    -2.723000000     2.066000000    -2.805000000
H    -3.285000000     3.468000000    -2.903000000
O    -1.602000000     4.305000000     2.835000000
H    -1.281000000     4.265000000     1.935000000
H    -1.394000000     3.445000000     3.202000000
O     2.156000000    -4.279000000    -1.442000000
H     3.109000000    -4.360000000    -1.408000000
H     1.896000000    -4.129000000    -0.533000000
O    -1.355000000     1.821000000     4.129000000
H    -1.988000000     1.104000000     4.118000000
H    -0.786000000     1.627000000     4.875000000
O     4.855000000     0.767000000    -0.870000000
H     4.740000000    -0.182000000    -0.827000000
H     4.074000000     1.082000000    -1.326000000
O    -5.214000000    -0.695000000    -4.189000000
H    -5.509000000    -0.067000000    -3.529000000
H    -4.642000000    -1.294000000    -3.710000000
O     2.818000000    -3.551000000     1.723000000
H     3.411000000    -3.629000000     2.470000000
H     1.955000000    -3.417000000     2.115000000
O    -0.706000000     4.339000000     0.224000000
H    -0.730000000     5.144000000    -0.294000000
H     0.138000000     3.942000000     0.011000000
O    -0.275000000    -6.343000000    -2.003000000
H     0.584000000    -6.249000000    -1.591000000
H    -0.471000000    -5.472000000    -2.350000000
O     1.616000000     2.722000000     4.546000000
H     1.743000000     3.048000000     3.655000000
H     1.297000000     3.481000000     5.035000000
O     4.796000000     3.969000000     3.964000000
H     4.763000000     3.344000000     3.240000000
H     3.901000000     3.992000000     4.302000000
O    -0.327000000    -4.853000000    -6.344000000
H    -0.186000000    -4.583000000    -5.436000000
H    -1.150000000    -4.433000000    -6.593000000
