158
-3038.83203
C    -1.316000000     0.495000000     0.112000000
H    -2.314000000     0.906000000     0.239000000
C    -0.737000000    -0.388000000     1.025000000
H    -1.345000000    -0.628000000     1.893000000
C     0.589000000    -0.723000000     0.818000000
H     1.084000000    -1.345000000     1.594000000
C     1.278000000    -0.313000000    -0.348000000
H     2.324000000    -0.564000000    -0.506000000
C     0.679000000     0.546000000    -1.285000000
H     1.234000000     0.819000000    -2.179000000
C    -0.628000000     0.950000000    -0.992000000
C    -1.438000000     1.740000000    -2.015000000
O    -2.542000000     2.163000000    -1.756000000
O    -1.003000000     2.052000000    -3.095000000
O     0.258000000     4.547000000    -3.138000000
H     0.172000000     3.600000000    -3.248000000
H     1.195000000     4.716000000    -3.241000000
O     0.548000000    -1.079000000    -4.767000000
H    -0.363000000    -1.301000000    -4.957000000
H     0.561000000    -0.122000000    -4.736000000
O     1.952000000    -3.413000000    -4.932000000
H     1.768000000    -3.752000000    -4.055000000
H     1.859000000    -2.464000000    -4.846000000
O     1.252000000    -5.497000000    -2.657000000
H     0.739000000    -6.109000000    -2.130000000
H     1.519000000    -4.815000000    -2.041000000
O     5.265000000    -3.167000000    -0.888000000
H     4.473000000    -2.690000000    -0.640000000
H     5.223000000    -3.221000000    -1.843000000
O    -1.300000000    -2.098000000    -1.510000000
H    -0.793000000    -1.341000000    -1.217000000
H    -2.173000000    -1.959000000    -1.142000000
O     3.848000000     0.503000000    -5.359000000
H     4.394000000     1.206000000    -5.008000000
H     2.982000000     0.660000000    -4.981000000
O     4.027000000     1.289000000     1.321000000
H     4.563000000     0.553000000     1.618000000
H     3.664000000     1.660000000     2.126000000
O    -4.185000000     0.981000000    -5.951000000
H    -4.277000000     1.309000000    -6.845000000
H    -3.570000000     1.585000000    -5.536000000
O    -2.657000000    -0.912000000     4.007000000
H    -1.884000000    -0.352000000     3.939000000
H    -2.309000000    -1.804000000     3.979000000
O     1.992000000    -4.119000000     1.092000000
H     1.621000000    -4.606000000     1.827000000
H     2.620000000    -3.519000000     1.493000000
O    -2.413000000     4.798000000    -2.155000000
H    -2.451000000     3.858000000    -1.974000000
H    -1.509000000     5.043000000    -1.961000000
O    -4.038000000    -1.591000000    -0.839000000
H    -4.372000000    -0.916000000    -0.249000000
H    -3.942000000    -1.147000000    -1.682000000
O    -0.319000000    -6.825000000    -0.758000000
H    -0.549000000    -6.584000000     0.140000000
H    -1.064000000    -7.340000000    -1.066000000
O     2.843000000     4.613000000    -3.764000000
H     3.022000000     4.885000000    -4.664000000
H     3.448000000     3.888000000    -3.608000000
O    -0.769000000     0.428000000     5.859000000
H    -1.545000000     0.482000000     6.417000000
H    -0.666000000     1.311000000     5.505000000
O    -4.671000000     1.327000000    -0.222000000
H    -4.053000000     1.706000000    -0.846000000
H    -5.508000000     1.321000000    -0.687000000
O     0.980000000    -1.151000000     4.552000000
H     1.826000000    -1.225000000     4.994000000
H     0.418000000    -0.704000000     5.185000000
O     0.864000000     2.061000000     2.403000000
H     0.405000000     1.461000000     1.816000000
H     1.695000000     1.623000000     2.591000000
O    -0.890000000    -6.905000000     1.893000000
H    -0.834000000    -7.802000000     2.224000000
H    -0.815000000    -6.356000000     2.673000000
O    -3.315000000     2.842000000     1.603000000
H    -2.448000000     3.249000000     1.600000000
H    -3.293000000     2.227000000     0.869000000
O     4.691000000    -4.828000000     3.350000000
H     5.585000000    -4.708000000     3.670000000
H     4.721000000    -5.649000000     2.858000000
O    -2.861000000     5.473000000    -4.630000000
H    -2.820000000     5.389000000    -3.677000000
H    -2.545000000     6.360000000    -4.806000000
O     0.578000000     3.968000000    -6.002000000
H     0.372000000     4.711000000    -6.570000000
H    -0.150000000     3.932000000    -5.382000000
O    -6.856000000     1.473000000    -1.985000000
H    -7.706000000     1.913000000    -2.026000000
H    -6.243000000     2.102000000    -2.367000000
O     1.325000000     1.632000000    -4.684000000
H     1.174000000     2.364000000    -5.281000000
H     0.841000000     1.864000000    -3.891000000
O     0.110000000     6.027000000    -0.807000000
H     0.218000000     5.778000000    -1.725000000
H     0.922000000     6.484000000    -0.587000000
O     3.721000000    -2.593000000     2.283000000
H     3.690000000    -1.982000000     3.020000000
H     4.171000000    -3.363000000     2.630000000
O    -3.580000000    -4.420000000     1.231000000
H    -4.425000000    -4.166000000     1.601000000
H    -3.449000000    -3.819000000     0.498000000
O    -0.745000000    -3.433000000     4.069000000
H    -0.551000000    -3.775000000     3.196000000
H     0.016000000    -2.897000000     4.292000000
O     3.488000000     1.800000000     3.931000000
H     3.366000000     2.522000000     4.547000000
H     3.612000000     1.030000000     4.487000000
O    -5.869000000     4.693000000    -5.169000000
H    -5.521000000     4.046000000    -4.555000000
H    -5.185000000     4.788000000    -5.831000000
O     6.026000000    -0.349000000     2.217000000
H     6.062000000    -1.244000000     1.880000000
H     6.393000000    -0.411000000     3.099000000
O    -5.232000000     0.050000000     2.359000000
H    -4.534000000     0.183000000     3.000000000
H    -4.993000000     0.615000000     1.624000000
O     4.006000000    -0.797000000     5.539000000
H     4.918000000    -0.574000000     5.349000000
H     4.055000000    -1.636000000     5.997000000
O    -5.667000000     3.334000000     3.006000000
H    -5.924000000     3.755000000     2.186000000
H    -4.775000000     3.024000000     2.848000000
O    -2.653000000     2.846000000    -4.891000000
H    -2.748000000     3.798000000    -4.851000000
H    -2.155000000     2.622000000    -4.105000000
O    -0.868000000     3.747000000     0.773000000
H    -0.131000000     3.600000000     1.366000000
H    -0.658000000     4.568000000     0.329000000
O    -0.999000000     1.462000000    -6.717000000
H    -1.486000000     1.939000000    -6.045000000
H    -0.426000000     0.874000000    -6.227000000
O     2.824000000     5.626000000    -0.437000000
H     2.596000000     4.961000000    -1.086000000
H     3.448000000     6.196000000    -0.887000000
O     1.993000000    -3.118000000    -1.373000000
H     1.125000000    -2.723000000    -1.456000000
H     1.945000000    -3.631000000    -0.567000000
O    -3.283000000     5.568000000     2.270000000
H    -4.193000000     5.849000000     2.176000000
H    -3.235000000     4.746000000     1.782000000
O    -0.855000000     2.881000000     4.404000000
H    -0.516000000     2.704000000     3.527000000
H    -0.285000000     3.570000000     4.747000000
O    -4.858000000     3.005000000    -3.131000000
H    -4.476000000     3.767000000    -2.697000000
H    -4.105000000     2.499000000    -3.435000000
O     1.701000000    -5.440000000     3.524000000
H     2.568000000    -5.157000000     3.816000000
H     1.828000000    -6.346000000     3.243000000
O     3.720000000     2.579000000    -0.995000000
H     4.383000000     3.175000000    -0.646000000
H     3.624000000     1.906000000    -0.321000000
O    -4.713000000    -0.593000000     5.752000000
H    -3.990000000    -0.700000000     5.133000000
H    -5.210000000     0.152000000     5.414000000
O    -4.327000000    -0.808000000    -4.010000000
H    -5.236000000    -1.068000000    -4.160000000
H    -4.111000000    -0.250000000    -4.758000000
