158
-3023.50484
C    -0.710000000     1.230000000     0.280000000
H    -1.275000000     2.047000000     0.721000000
C    -0.937000000     0.006000000     0.882000000
H    -1.627000000    -0.109000000     1.714000000
C    -0.309000000    -1.106000000     0.414000000
H    -0.345000000    -2.045000000     0.951000000
C     0.534000000    -1.068000000    -0.710000000
H     1.003000000    -1.981000000    -1.067000000
C     0.671000000     0.145000000    -1.352000000
H     1.398000000     0.245000000    -2.154000000
C     0.139000000     1.338000000    -0.871000000
C     0.643000000     2.711000000    -1.285000000
O     0.003000000     3.714000000    -0.914000000
O     1.712000000     2.815000000    -1.915000000
O    -0.827000000     5.632000000    -2.454000000
H    -0.620000000     5.055000000    -1.720000000
H    -0.371000000     5.243000000    -3.201000000
O    -0.632000000     8.063000000    -1.465000000
H    -0.581000000     7.159000000    -1.776000000
H    -0.763000000     8.582000000    -2.258000000
O    -0.950000000    -2.596000000    -4.040000000
H    -0.961000000    -2.099000000    -3.222000000
H    -1.462000000    -2.065000000    -4.650000000
O    -0.940000000    -5.369000000    -3.829000000
H    -1.891000000    -5.291000000    -3.752000000
H    -0.644000000    -4.486000000    -4.050000000
O     0.161000000    -6.802000000    -1.758000000
H    -0.539000000    -6.687000000    -1.116000000
H    -0.117000000    -6.281000000    -2.511000000
O     4.419000000    -4.472000000     0.310000000
H     3.703000000    -4.627000000    -0.306000000
H     5.213000000    -4.568000000    -0.217000000
O     2.127000000    -5.515000000     2.333000000
H     2.527000000    -5.488000000     1.464000000
H     1.319000000    -5.011000000     2.241000000
O    -4.061000000    -3.329000000    -1.332000000
H    -3.366000000    -2.692000000    -1.499000000
H    -4.646000000    -2.887000000    -0.716000000
O    -3.374000000     6.389000000    -2.509000000
H    -3.556000000     6.607000000    -3.423000000
H    -2.520000000     5.957000000    -2.531000000
O     1.785000000     7.610000000    -4.543000000
H     1.106000000     7.744000000    -5.204000000
H     1.981000000     6.674000000    -4.587000000
O     2.608000000     6.756000000    -0.750000000
H     3.261000000     7.455000000    -0.785000000
H     2.538000000     6.447000000    -1.653000000
O     2.527000000     2.033000000    -6.854000000
H     2.458000000     2.947000000    -7.132000000
H     2.294000000     2.047000000    -5.926000000
O     2.494000000    -2.628000000    -3.774000000
H     1.802000000    -2.838000000    -4.401000000
H     2.334000000    -3.216000000    -3.036000000
O     4.514000000     1.741000000    -0.882000000
H     3.956000000     2.506000000    -1.023000000
H     5.368000000     2.001000000    -1.227000000
O     0.300000000     4.848000000    -4.889000000
H    -0.422000000     5.165000000    -5.431000000
H     0.939000000     4.508000000    -5.516000000
O    -2.565000000    -1.255000000     6.263000000
H    -3.149000000    -1.899000000     6.662000000
H    -1.748000000    -1.731000000     6.114000000
O     3.164000000     1.573000000     5.043000000
H     3.504000000     1.956000000     4.234000000
H     2.668000000     0.807000000     4.754000000
O    -4.797000000    -3.124000000     4.678000000
H    -5.310000000    -3.894000000     4.435000000
H    -3.911000000    -3.320000000     4.372000000
O    -1.008000000    -4.919000000     1.845000000
H    -1.706000000    -4.773000000     1.207000000
H    -0.820000000    -5.856000000     1.783000000
O    -2.832000000     3.872000000     0.267000000
H    -2.047000000     3.864000000    -0.282000000
H    -2.807000000     4.722000000     0.707000000
O    -5.040000000     2.229000000     0.967000000
H    -5.705000000     2.080000000     0.295000000
H    -4.308000000     2.626000000     0.496000000
O    -3.120000000    -5.716000000     0.158000000
H    -3.712000000    -4.985000000    -0.020000000
H    -3.509000000    -6.458000000    -0.306000000
O     0.369000000     5.953000000     0.447000000
H     1.179000000     6.271000000     0.049000000
H     0.185000000     5.131000000    -0.008000000
O    -6.119000000    -1.472000000     2.805000000
H    -5.321000000    -1.697000000     3.282000000
H    -6.818000000    -1.920000000     3.283000000
O     1.858000000    -2.993000000     4.840000000
H     2.368000000    -3.335000000     5.574000000
H     2.422000000    -3.119000000     4.077000000
O    -2.276000000     7.534000000     0.476000000
H    -1.843000000     7.563000000    -0.377000000
H    -1.562000000     7.613000000     1.109000000
O     6.080000000     1.729000000    -5.268000000
H     5.239000000     1.970000000    -4.879000000
H     6.688000000     2.401000000    -4.962000000
O     1.986000000     0.580000000     1.472000000
H     1.707000000     0.392000000     2.368000000
H     1.315000000     0.176000000     0.922000000
O    -5.991000000    -1.758000000     0.034000000
H    -5.874000000    -1.465000000     0.938000000
H    -6.681000000    -2.420000000     0.084000000
O    -4.790000000     3.767000000    -1.848000000
H    -4.108000000     3.355000000    -1.317000000
H    -4.432000000     4.626000000    -2.073000000
O     2.411000000     5.222000000    -3.178000000
H     1.646000000     5.270000000    -3.753000000
H     2.422000000     4.317000000    -2.870000000
O     3.770000000    -3.023000000     2.988000000
H     3.987000000    -3.506000000     2.191000000
H     4.543000000    -2.486000000     3.161000000
O    -0.594000000    -3.170000000     5.874000000
H     0.285000000    -3.155000000     5.495000000
H    -1.179000000    -3.232000000     5.119000000
O     4.513000000    -0.575000000     0.482000000
H     4.333000000     0.244000000     0.020000000
H     3.752000000    -0.702000000     1.049000000
O    -4.815000000     1.469000000     3.425000000
H    -5.542000000     0.853000000     3.338000000
H    -4.637000000     1.758000000     2.530000000
O     0.045000000     3.164000000     3.767000000
H    -0.564000000     2.436000000     3.640000000
H     0.157000000     3.220000000     4.716000000
O     2.464000000    -5.266000000    -1.596000000
H     3.161000000    -5.652000000    -2.126000000
H     1.850000000    -5.985000000    -1.447000000
O     0.330000000     6.297000000     3.109000000
H     0.191000000     6.079000000     2.188000000
H     0.405000000     5.449000000     3.548000000
O    -2.288000000    -1.271000000    -1.733000000
H    -2.389000000    -0.646000000    -2.451000000
H    -1.684000000    -0.844000000    -1.126000000
O    -2.484000000     1.140000000     4.878000000
H    -3.293000000     1.325000000     4.400000000
H    -2.669000000     0.332000000     5.356000000
O     1.183000000    -0.325000000     4.367000000
H     1.370000000    -1.264000000     4.344000000
H     0.680000000    -0.201000000     5.171000000
O     3.175000000     1.535000000    -3.739000000
H     3.806000000     1.014000000    -3.243000000
H     2.588000000     1.897000000    -3.075000000
O     3.532000000    -6.161000000     4.572000000
H     3.205000000    -5.584000000     5.262000000
H     3.170000000    -5.797000000     3.764000000
O    -0.559000000    -7.635000000     2.315000000
H    -0.221000000    -8.358000000     2.843000000
H    -1.189000000    -8.045000000     1.722000000
O    -2.304000000    -4.080000000     4.189000000
H    -1.988000000    -4.843000000     4.673000000
H    -1.961000000    -4.198000000     3.304000000
O     3.544000000     4.087000000    -0.356000000
H     2.848000000     3.671000000    -0.866000000
H     3.520000000     5.006000000    -0.623000000
O     4.905000000    -1.513000000    -3.447000000
H     5.357000000    -2.257000000    -3.049000000
H     3.980000000    -1.762000000    -3.438000000
O     2.101000000     4.091000000     2.346000000
H     1.420000000     3.460000000     2.578000000
H     2.257000000     3.943000000     1.413000000
