158
-3030.92481
C    -0.013000000     1.206000000    -0.751000000
H    -0.191000000     2.134000000    -1.289000000
C    -0.971000000     0.754000000     0.146000000
H    -1.810000000     1.426000000     0.306000000
C    -0.872000000    -0.439000000     0.744000000
H    -1.478000000    -0.704000000     1.490000000
C     0.273000000    -1.191000000     0.519000000
H     0.416000000    -2.163000000     0.984000000
C     1.282000000    -0.749000000    -0.314000000
H     2.177000000    -1.350000000    -0.456000000
C     1.156000000     0.511000000    -0.930000000
C     2.145000000     0.945000000    -1.979000000
O     2.064000000     2.146000000    -2.362000000
O     2.954000000     0.189000000    -2.466000000
O     4.079000000    -4.749000000    -0.995000000
H     4.876000000    -4.341000000    -0.654000000
H     4.227000000    -4.812000000    -1.938000000
O     3.925000000    -3.484000000     3.024000000
H     2.968000000    -3.484000000     3.045000000
H     4.177000000    -2.744000000     3.576000000
O     5.225000000     0.000000000    -3.817000000
H     4.305000000     0.168000000    -3.615000000
H     5.435000000    -0.799000000    -3.332000000
O     6.379000000     2.472000000    -3.380000000
H     5.802000000     3.198000000    -3.617000000
H     5.856000000     1.687000000    -3.543000000
O     5.969000000    -1.864000000    -2.175000000
H     6.725000000    -2.386000000    -2.444000000
H     6.342000000    -1.152000000    -1.656000000
O     3.355000000    -2.241000000    -2.951000000
H     3.136000000    -1.393000000    -2.567000000
H     4.210000000    -2.459000000    -2.581000000
O     3.269000000    -2.411000000    -5.852000000
H     3.558000000    -2.377000000    -4.940000000
H     2.313000000    -2.421000000    -5.801000000
O     4.375000000     1.162000000     1.645000000
H     3.425000000     1.159000000     1.763000000
H     4.539000000     0.469000000     1.006000000
O    -4.403000000    -2.456000000     1.643000000
H    -4.084000000    -1.726000000     1.112000000
H    -3.792000000    -3.170000000     1.460000000
O    -2.689000000     0.177000000    -2.759000000
H    -2.507000000     0.985000000    -3.238000000
H    -2.348000000    -0.517000000    -3.323000000
O     3.739000000    -1.024000000     4.349000000
H     4.009000000    -0.567000000     5.145000000
H     2.994000000    -0.519000000     4.024000000
O     1.320000000    -3.902000000     3.494000000
H     1.298000000    -4.340000000     4.345000000
H     0.708000000    -4.401000000     2.952000000
O    -7.627000000    -2.124000000     1.331000000
H    -8.154000000    -2.566000000     1.996000000
H    -6.791000000    -1.951000000     1.763000000
O     5.979000000    -3.869000000     0.948000000
H     6.272000000    -4.630000000     1.449000000
H     5.384000000    -3.408000000     1.539000000
O     5.931000000    -0.402000000    -6.438000000
H     5.497000000    -0.261000000    -5.597000000
H     6.357000000     0.433000000    -6.631000000
O    -4.403000000    -0.403000000    -0.234000000
H    -5.268000000    -0.561000000    -0.612000000
H    -3.871000000    -0.102000000    -0.971000000
O    -1.753000000     2.338000000     2.993000000
H    -1.102000000     1.643000000     2.900000000
H    -2.358000000     2.199000000     2.265000000
O     6.806000000     0.313000000    -0.480000000
H     6.977000000     1.217000000    -0.744000000
H     7.415000000     0.155000000     0.241000000
O    -4.263000000     3.634000000    -3.255000000
H    -4.536000000     2.726000000    -3.380000000
H    -3.379000000     3.672000000    -3.619000000
O    -2.517000000     4.494000000     4.638000000
H    -1.933000000     5.161000000     4.278000000
H    -2.508000000     3.792000000     3.987000000
O     4.919000000     4.403000000    -5.170000000
H     4.513000000     4.843000000    -4.423000000
H     4.280000000     3.741000000    -5.434000000
O     1.592000000     0.357000000     4.912000000
H     1.426000000     0.625000000     5.816000000
H     1.121000000    -0.471000000     4.818000000
O    -2.089000000    -5.544000000     4.734000000
H    -2.830000000    -4.979000000     4.514000000
H    -1.891000000    -5.334000000     5.646000000
O    -1.917000000    -4.093000000     0.227000000
H    -1.222000000    -4.485000000     0.756000000
H    -2.696000000    -4.609000000     0.436000000
O     2.047000000     5.116000000    -5.159000000
H     2.558000000     4.311000000    -5.077000000
H     1.435000000     5.088000000    -4.423000000
O     2.342000000     3.327000000     1.533000000
H     1.973000000     3.806000000     2.275000000
H     2.004000000     2.437000000     1.631000000
O     3.150000000     2.460000000    -4.825000000
H     2.893000000     2.038000000    -4.005000000
H     2.557000000     2.093000000    -5.480000000
O     1.679000000     1.031000000     2.300000000
H     1.554000000     0.810000000     3.223000000
H     0.948000000     0.605000000     1.852000000
O     0.766000000    -0.209000000    -4.582000000
H     1.569000000    -0.277000000    -4.066000000
H     0.649000000    -1.082000000    -4.958000000
O    -2.120000000     5.303000000    -1.611000000
H    -1.450000000     5.858000000    -2.010000000
H    -2.889000000     5.869000000    -1.543000000
O     4.179000000     5.016000000    -2.514000000
H     3.908000000     4.445000000    -1.794000000
H     3.754000000     5.853000000    -2.328000000
O    -1.171000000    -2.444000000    -1.763000000
H    -0.982000000    -1.629000000    -1.298000000
H    -1.526000000    -3.026000000    -1.090000000
O     0.192000000    -1.751000000     4.867000000
H     0.228000000    -2.592000000     4.411000000
H    -0.692000000    -1.715000000     5.233000000
O    -4.389000000    -5.236000000     0.967000000
H    -5.337000000    -5.119000000     0.899000000
H    -4.192000000    -5.952000000     0.363000000
O    -3.081000000     3.460000000     0.024000000
H    -2.621000000     3.834000000    -0.728000000
H    -2.966000000     4.107000000     0.720000000
O    -1.163000000     1.484000000    -5.951000000
H    -1.718000000     0.706000000    -6.002000000
H    -0.317000000     1.154000000    -5.649000000
O    -2.138000000    -1.810000000     6.041000000
H    -2.460000000    -2.698000000     6.195000000
H    -2.632000000    -1.266000000     6.654000000
O     4.104000000     2.971000000    -0.614000000
H     3.728000000     3.084000000     0.259000000
H     3.392000000     2.599000000    -1.135000000
O     0.745000000     4.396000000    -2.909000000
H     1.213000000     3.575000000    -2.752000000
H     0.525000000     4.716000000    -2.034000000
O     1.141000000     5.249000000    -0.094000000
H     1.383000000     4.481000000     0.424000000
H     1.970000000     5.700000000    -0.255000000
O    -5.210000000     0.437000000     2.472000000
H    -5.039000000     1.316000000     2.132000000
H    -4.856000000    -0.151000000     1.805000000
O     1.091000000    -3.755000000    -2.769000000
H     0.307000000    -3.249000000    -2.552000000
H     1.778000000    -3.097000000    -2.877000000
O    -4.528000000    -4.577000000     3.604000000
H    -4.704000000    -3.636000000     3.607000000
H    -4.548000000    -4.821000000     2.679000000
O    -0.470000000    -5.488000000     2.108000000
H    -0.067000000    -6.237000000     1.669000000
H    -1.224000000    -5.856000000     2.568000000
O    -1.755000000     3.995000000    -4.647000000
H    -1.034000000     3.902000000    -4.025000000
H    -1.660000000     3.249000000    -5.239000000
O    -5.697000000     3.003000000     0.288000000
H    -5.632000000     3.227000000     1.216000000
H    -4.798000000     3.056000000    -0.035000000
O    -4.878000000     0.347000000     5.101000000
H    -3.922000000     0.334000000     5.154000000
H    -5.069000000     0.205000000     4.174000000
O    -3.635000000    -4.610000000    -1.975000000
H    -4.409000000    -4.050000000    -2.017000000
H    -3.044000000    -4.157000000    -1.373000000
