158
-3030.87311
C    -0.696000000     1.146000000    -0.735000000
H    -1.143000000     2.055000000    -1.130000000
C    -0.949000000     0.734000000     0.604000000
H    -1.555000000     1.335000000     1.277000000
C    -0.294000000    -0.346000000     1.159000000
H    -0.432000000    -0.778000000     2.137000000
C     0.577000000    -1.105000000     0.335000000
H     1.020000000    -2.010000000     0.743000000
C     0.805000000    -0.725000000    -1.019000000
H     1.524000000    -1.345000000    -1.550000000
C     0.195000000     0.428000000    -1.494000000
C     0.564000000     0.922000000    -2.865000000
O     0.496000000     2.096000000    -3.217000000
O     1.037000000     0.130000000    -3.651000000
O     3.059000000     1.108000000     7.184000000
H     2.678000000     0.799000000     8.006000000
H     3.056000000     0.338000000     6.614000000
O     0.304000000     0.106000000     4.613000000
H     0.454000000     0.928000000     5.080000000
H    -0.613000000    -0.106000000     4.789000000
O     3.808000000     0.141000000    -4.116000000
H     2.928000000     0.479000000    -3.949000000
H     4.339000000     0.493000000    -3.401000000
O     3.601000000    -2.433000000    -2.291000000
H     3.944000000    -2.571000000    -3.174000000
H     4.365000000    -2.175000000    -1.775000000
O     3.604000000    -4.721000000    -0.017000000
H     2.926000000    -5.116000000    -0.565000000
H     3.227000000    -3.889000000     0.267000000
O     1.066000000    -2.654000000    -3.751000000
H     0.985000000    -1.701000000    -3.786000000
H     1.920000000    -2.807000000    -3.345000000
O     0.256000000    -4.441000000    -5.805000000
H     0.648000000    -3.946000000    -5.086000000
H    -0.144000000    -3.775000000    -6.365000000
O     1.730000000     2.112000000     2.514000000
H     1.351000000     2.230000000     1.643000000
H     0.977000000     1.959000000     3.084000000
O    -3.364000000    -0.353000000     2.351000000
H    -3.852000000     0.447000000     2.158000000
H    -3.043000000    -0.228000000     3.244000000
O     3.244000000    -5.392000000     3.567000000
H     2.336000000    -5.653000000     3.413000000
H     3.230000000    -4.436000000     3.517000000
O    -6.241000000     0.785000000    -1.669000000
H    -5.480000000     1.342000000    -1.506000000
H    -6.862000000     1.354000000    -2.124000000
O     0.882000000    -4.013000000     2.932000000
H     1.379000000    -3.224000000     2.718000000
H     0.030000000    -3.879000000     2.517000000
O     5.697000000    -2.219000000    -0.472000000
H     6.458000000    -2.002000000    -1.011000000
H     6.069000000    -2.579000000     0.333000000
O     3.402000000     2.394000000    -6.872000000
H     3.021000000     2.593000000    -6.017000000
H     3.475000000     3.243000000    -7.306000000
O    -1.343000000     2.362000000    -7.708000000
H    -2.126000000     2.688000000    -7.265000000
H    -0.625000000     2.869000000    -7.328000000
O    -4.996000000     1.756000000     1.484000000
H    -5.852000000     1.336000000     1.568000000
H    -4.845000000     1.804000000     0.540000000
O    -2.344000000     4.028000000     0.461000000
H    -2.527000000     4.966000000     0.409000000
H    -2.640000000     3.775000000     1.335000000
O    -1.266000000    -3.465000000     1.150000000
H    -2.000000000    -3.450000000     1.763000000
H    -1.509000000    -2.835000000     0.471000000
O     5.483000000     0.524000000    -0.052000000
H     5.384000000    -0.411000000    -0.229000000
H     6.316000000     0.758000000    -0.462000000
O    -2.330000000     4.972000000    -5.358000000
H    -1.771000000     4.764000000    -4.609000000
H    -2.582000000     5.885000000    -5.222000000
O    -1.895000000    -5.470000000     3.834000000
H    -1.269000000    -6.194000000     3.849000000
H    -2.442000000    -5.611000000     4.607000000
O     5.587000000    -1.484000000     3.654000000
H     4.962000000    -0.804000000     3.402000000
H     5.641000000    -1.420000000     4.607000000
O     2.953000000     5.755000000    -3.888000000
H     2.223000000     6.199000000    -4.320000000
H     2.762000000     4.823000000    -3.992000000
O    -3.295000000     2.293000000     5.490000000
H    -3.029000000     1.419000000     5.203000000
H    -3.551000000     2.741000000     4.684000000
O    -2.191000000    -1.668000000    -0.958000000
H    -2.953000000    -1.582000000    -0.384000000
H    -1.613000000    -0.951000000    -0.697000000
O     2.162000000     2.895000000    -0.379000000
H     3.060000000     3.106000000    -0.126000000
H     2.256000000     2.281000000    -1.107000000
O     2.567000000    -1.963000000     6.314000000
H     1.627000000    -1.867000000     6.468000000
H     2.663000000    -1.881000000     5.365000000
O    -3.870000000     3.540000000     2.982000000
H    -4.409000000     4.326000000     2.891000000
H    -4.299000000     2.890000000     2.424000000
O    -2.302000000    -0.423000000     5.224000000
H    -2.570000000    -0.540000000     6.136000000
H    -2.102000000    -1.307000000     4.918000000
O    -1.993000000    -2.269000000    -5.324000000
H    -1.258000000    -1.667000000    -5.442000000
H    -2.586000000    -1.808000000    -4.730000000
O     0.618000000     3.361000000    -6.002000000
H     1.063000000     2.837000000    -5.337000000
H     0.099000000     3.992000000    -5.503000000
O     0.930000000     4.612000000     3.434000000
H     1.176000000     3.740000000     3.126000000
H     1.692000000     4.914000000     3.929000000
O    -0.177000000     0.205000000    -6.222000000
H     0.055000000     0.258000000    -5.294000000
H    -0.246000000     1.117000000    -6.503000000
O     3.850000000     0.458000000     2.213000000
H     4.376000000     0.780000000     1.481000000
H     3.210000000     1.152000000     2.372000000
O     2.296000000    -1.470000000     3.735000000
H     1.541000000    -0.916000000     3.936000000
H     2.735000000    -1.024000000     3.011000000
O     0.855000000     2.548000000     5.769000000
H     0.642000000     2.711000000     6.688000000
H     1.812000000     2.571000000     5.738000000
O    -3.862000000     2.039000000    -1.250000000
H    -3.662000000     2.019000000    -2.186000000
H    -3.524000000     2.883000000    -0.952000000
O    -3.408000000    -1.166000000    -3.214000000
H    -4.208000000    -0.697000000    -2.977000000
H    -3.041000000    -1.451000000    -2.377000000
O     4.824000000     2.129000000     5.025000000
H     4.141000000     1.810000000     4.435000000
H     4.424000000     2.873000000     5.475000000
O    -3.592000000    -3.483000000     2.238000000
H    -3.850000000    -3.357000000     3.151000000
H    -4.021000000    -2.768000000     1.768000000
O    -2.547000000     2.390000000    -3.605000000
H    -2.924000000     2.039000000    -4.413000000
H    -1.623000000     2.141000000    -3.645000000
O     2.923000000     3.079000000    -4.021000000
H     3.607000000     2.847000000    -3.392000000
H     2.116000000     2.744000000    -3.631000000
O    -0.268000000     4.542000000    -3.441000000
H    -0.063000000     3.609000000    -3.489000000
H     0.069000000     4.819000000    -2.589000000
O     0.260000000     4.812000000    -0.783000000
H     0.898000000     4.174000000    -0.462000000
H    -0.588000000     4.385000000    -0.662000000
O    -1.365000000    -3.756000000    -2.490000000
H    -1.669000000    -3.095000000    -1.868000000
H    -0.764000000    -3.284000000    -3.067000000
O     0.441000000    -5.610000000     0.117000000
H     0.110000000    -4.779000000    -0.224000000
H     0.145000000    -5.630000000     1.027000000
O    -1.463000000    -2.887000000     4.464000000
H    -0.579000000    -3.089000000     4.773000000
H    -1.797000000    -3.722000000     4.135000000
O     2.369000000    -1.152000000    -6.263000000
H     1.480000000    -0.800000000    -6.299000000
H     2.864000000    -0.504000000    -5.763000000
