158
-3051.15559
C    -0.275000000     0.528000000    -1.369000000
H    -0.579000000     1.012000000    -2.293000000
C    -1.095000000     0.584000000    -0.225000000
H    -1.956000000     1.233000000    -0.364000000
C    -0.756000000    -0.107000000     0.944000000
H    -1.527000000    -0.060000000     1.767000000
C     0.462000000    -0.799000000     1.047000000
H     0.615000000    -1.360000000     1.966000000
C     1.351000000    -0.726000000    -0.030000000
H     2.344000000    -1.121000000     0.167000000
C     0.987000000    -0.007000000    -1.203000000
C     2.015000000     0.187000000    -2.316000000
O     1.595000000     0.657000000    -3.373000000
O     3.200000000     0.018000000    -2.108000000
O     4.556000000     0.324000000    -4.405000000
H     4.597000000    -0.625000000    -4.526000000
H     3.982000000     0.445000000    -3.649000000
O     5.181000000    -2.015000000    -1.469000000
H     4.614000000    -2.511000000    -0.878000000
H     4.575000000    -1.531000000    -2.031000000
O     1.266000000    -4.255000000     1.286000000
H     0.354000000    -4.079000000     1.052000000
H     1.411000000    -5.163000000     1.020000000
O     1.997000000     1.297000000     5.863000000
H     1.220000000     0.787000000     5.636000000
H     2.464000000     0.754000000     6.498000000
O     0.128000000    -3.445000000    -4.262000000
H    -0.512000000    -3.349000000    -3.557000000
H    -0.326000000    -3.956000000    -4.931000000
O    -3.126000000    -1.778000000     7.140000000
H    -2.965000000    -1.007000000     6.596000000
H    -3.051000000    -1.456000000     8.038000000
O    -5.719000000     1.606000000     0.750000000
H    -5.810000000     1.922000000    -0.149000000
H    -6.618000000     1.466000000     1.047000000
O    -3.454000000    -1.439000000    -1.609000000
H    -4.107000000    -1.538000000    -0.917000000
H    -3.588000000    -0.552000000    -1.941000000
O    -1.328000000    -5.204000000    -0.951000000
H    -0.981000000    -4.317000000    -1.044000000
H    -1.119000000    -5.631000000    -1.781000000
O     3.938000000    -3.510000000     0.301000000
H     2.990000000    -3.452000000     0.426000000
H     4.113000000    -4.448000000     0.229000000
O    -1.348000000     1.247000000     7.000000000
H    -2.277000000     1.427000000     6.855000000
H    -0.899000000     1.732000000     6.308000000
O    -0.802000000     1.335000000    -4.582000000
H    -0.627000000     2.072000000    -5.167000000
H     0.058000000     1.089000000    -4.242000000
O    -0.277000000     2.806000000     5.021000000
H     0.289000000     2.674000000     4.260000000
H    -0.521000000     3.731000000     4.979000000
O    -3.506000000     1.043000000    -3.210000000
H    -2.750000000     1.294000000    -3.740000000
H    -3.884000000     0.294000000    -3.671000000
O    -3.500000000     3.040000000     2.287000000
H    -3.974000000     3.827000000     2.553000000
H    -4.106000000     2.579000000     1.707000000
O     4.284000000     3.463000000    -1.992000000
H     3.999000000     3.713000000    -1.113000000
H     5.005000000     2.851000000    -1.845000000
O     2.753000000    -1.122000000     4.455000000
H     1.813000000    -0.988000000     4.339000000
H     2.996000000    -1.733000000     3.759000000
O    -0.079000000    -0.711000000     4.415000000
H    -0.587000000    -1.389000000     4.859000000
H    -0.730000000    -0.197000000     3.938000000
O    -3.014000000     6.304000000    -0.728000000
H    -3.208000000     5.399000000    -0.974000000
H    -2.191000000     6.249000000    -0.243000000
O     1.929000000     3.089000000    -0.172000000
H     1.230000000     3.332000000     0.435000000
H     2.057000000     2.151000000    -0.027000000
O    -3.501000000    -1.197000000     2.967000000
H    -4.191000000    -0.965000000     2.345000000
H    -3.278000000    -0.372000000     3.397000000
O     0.195000000    -4.567000000     4.046000000
H     0.831000000    -4.491000000     3.334000000
H    -0.570000000    -4.084000000     3.736000000
O     6.813000000     1.317000000    -2.899000000
H     6.220000000     0.812000000    -3.456000000
H     6.442000000     1.237000000    -2.020000000
O     1.177000000    -1.082000000    -5.153000000
H     1.448000000    -0.396000000    -4.542000000
H     0.829000000    -1.777000000    -4.594000000
O     2.262000000     4.730000000    -5.244000000
H     1.860000000     4.464000000    -4.417000000
H     2.994000000     5.291000000    -4.985000000
O     5.298000000    -3.951000000     3.332000000
H     4.676000000    -3.931000000     4.059000000
H     4.896000000    -3.402000000     2.658000000
O    -5.023000000    -3.936000000     1.575000000
H    -4.371000000    -4.545000000     1.229000000
H    -5.303000000    -3.426000000     0.815000000
O     4.222000000     1.108000000     3.182000000
H     3.473000000     0.664000000     3.580000000
H     4.977000000     0.794000000     3.679000000
O    -3.484000000     3.680000000    -1.809000000
H    -2.591000000     3.892000000    -2.080000000
H    -3.685000000     2.862000000    -2.263000000
O    -2.145000000     1.069000000     3.911000000
H    -1.530000000     1.688000000     4.303000000
H    -2.740000000     1.615000000     3.397000000
O    -1.911000000    -3.440000000     2.825000000
H    -2.502000000    -4.015000000     2.338000000
H    -2.456000000    -2.696000000     3.078000000
O    -6.146000000     3.337000000    -1.363000000
H    -6.696000000     4.114000000    -1.260000000
H    -5.251000000     3.662000000    -1.262000000
O     5.033000000     1.111000000    -0.547000000
H     5.392000000     0.392000000    -0.027000000
H     4.250000000     0.743000000    -0.957000000
O     3.063000000     1.747000000    -6.117000000
H     3.529000000     1.149000000    -5.533000000
H     2.911000000     2.530000000    -5.588000000
O     1.473000000     3.390000000    -3.026000000
H     1.900000000     3.476000000    -2.174000000
H     1.553000000     2.461000000    -3.241000000
O    -0.826000000     3.809000000     1.433000000
H    -0.879000000     4.765000000     1.423000000
H    -1.690000000     3.525000000     1.731000000
O    -6.777000000     1.803000000     3.805000000
H    -6.910000000     2.748000000     3.881000000
H    -6.435000000     1.680000000     2.920000000
O     1.078000000     0.250000000    -7.397000000
H     1.158000000    -0.327000000    -6.638000000
H     1.819000000     0.851000000    -7.321000000
O    -5.247000000    -0.951000000     0.305000000
H    -6.100000000    -1.117000000    -0.096000000
H    -5.161000000     0.002000000     0.300000000
O    -0.919000000     4.479000000    -2.585000000
H    -0.268000000     3.857000000    -2.909000000
H    -0.411000000     5.251000000    -2.336000000
O    -0.126000000     3.538000000    -6.041000000
H     0.744000000     3.881000000    -5.840000000
H    -0.662000000     4.317000000    -6.191000000
O    -5.158000000    -3.414000000     4.163000000
H    -5.501000000    -3.239000000     3.287000000
H    -4.990000000    -2.547000000     4.532000000
O     5.142000000     2.847000000     1.377000000
H     5.254000000     2.261000000     0.629000000
H     4.860000000     2.274000000     2.090000000
O     6.992000000    -3.120000000     0.489000000
H     6.116000000    -3.084000000     0.105000000
H     7.129000000    -2.247000000     0.855000000
O     1.110000000     2.574000000     2.855000000
H     0.592000000     2.891000000     2.115000000
H     1.684000000     1.907000000     2.478000000
O    -1.557000000    -1.089000000    -5.754000000
H    -1.282000000    -0.208000000    -5.500000000
H    -0.759000000    -1.614000000    -5.702000000
O     3.766000000    -2.340000000    -4.767000000
H     2.857000000    -2.283000000    -5.062000000
H     3.989000000    -3.267000000    -4.855000000
O    -0.928000000    -2.516000000    -1.370000000
H    -1.726000000    -2.126000000    -1.727000000
H    -0.870000000    -2.169000000    -0.480000000
