158
-3022.50345
C    -0.047000000     0.541000000     1.435000000
H    -0.223000000     0.981000000     2.413000000
C    -1.110000000     0.027000000     0.706000000
H    -2.096000000     0.082000000     1.159000000
C    -0.938000000    -0.545000000    -0.571000000
H    -1.834000000    -0.906000000    -1.127000000
C     0.311000000    -0.521000000    -1.194000000
H     0.516000000    -0.768000000    -2.232000000
C     1.370000000     0.056000000    -0.511000000
H     2.340000000     0.075000000    -1.002000000
C     1.209000000     0.642000000     0.784000000
C     2.477000000     1.101000000     1.524000000
O     2.395000000     1.531000000     2.669000000
O     3.565000000     0.894000000     1.051000000
O     5.558000000     0.734000000    -3.900000000
H     6.475000000     0.895000000    -4.121000000
H     5.304000000    -0.002000000    -4.456000000
O     4.870000000     3.227000000     1.323000000
H     4.389000000     2.399000000     1.296000000
H     5.332000000     3.207000000     2.160000000
O     6.899000000     2.064000000     2.805000000
H     7.651000000     2.638000000     2.951000000
H     7.047000000     1.690000000     1.937000000
O     4.835000000     2.587000000    -1.521000000
H     4.627000000     2.230000000    -0.657000000
H     5.254000000     1.862000000    -1.985000000
O     6.489000000     4.577000000    -0.658000000
H     5.867000000     3.851000000    -0.623000000
H     7.062000000     4.366000000    -1.396000000
O     0.967000000    -1.940000000    -7.515000000
H     0.034000000    -1.814000000    -7.687000000
H     1.052000000    -1.832000000    -6.568000000
O     5.339000000    -0.660000000    -0.216000000
H     5.816000000     0.077000000    -0.596000000
H     4.875000000    -0.285000000     0.533000000
O    -6.641000000    -2.185000000     1.686000000
H    -6.652000000    -2.730000000     0.899000000
H    -5.879000000    -1.616000000     1.572000000
O    -7.505000000     0.976000000    -0.832000000
H    -7.729000000     1.298000000    -1.705000000
H    -6.600000000     1.256000000    -0.698000000
O    -4.598000000    -4.148000000    -2.683000000
H    -4.397000000    -3.885000000    -1.785000000
H    -5.049000000    -3.391000000    -3.058000000
O    -4.479000000     1.284000000    -0.858000000
H    -4.700000000     1.712000000    -0.031000000
H    -3.653000000     1.687000000    -1.123000000
O     4.724000000     1.210000000     4.034000000
H     3.910000000     1.474000000     3.604000000
H     5.416000000     1.576000000     3.483000000
O     2.981000000     4.921000000     0.375000000
H     3.327000000     5.157000000    -0.486000000
H     3.701000000     4.458000000     0.803000000
O     0.564000000    -2.040000000    -4.831000000
H    -0.311000000    -1.841000000    -4.496000000
H     0.669000000    -2.979000000    -4.683000000
O     3.379000000     2.841000000     6.432000000
H     2.672000000     2.327000000     6.823000000
H     3.970000000     2.188000000     6.057000000
O     0.317000000     5.079000000     1.085000000
H     1.154000000     5.040000000     0.623000000
H     0.482000000     4.641000000     1.919000000
O    -4.218000000     2.208000000     1.858000000
H    -3.485000000     2.436000000     2.430000000
H    -4.995000000     2.348000000     2.398000000
O     8.121000000     0.794000000     0.901000000
H     7.845000000     0.740000000    -0.014000000
H     8.961000000     1.251000000     0.871000000
O     6.037000000    -1.208000000     4.264000000
H     5.403000000    -0.492000000     4.219000000
H     5.732000000    -1.839000000     3.612000000
O    -6.788000000    -3.993000000    -0.553000000
H    -7.174000000    -4.868000000    -0.533000000
H    -7.186000000    -3.572000000    -1.315000000
O     5.399000000    -2.834000000    -2.088000000
H     5.848000000    -2.324000000    -1.413000000
H     5.443000000    -2.286000000    -2.871000000
O    -1.800000000    -6.366000000    -0.047000000
H    -1.038000000    -6.576000000    -0.586000000
H    -2.378000000    -7.123000000    -0.141000000
O    -2.042000000    -1.890000000    -3.795000000
H    -2.492000000    -2.483000000    -4.397000000
H    -2.408000000    -1.028000000    -3.990000000
O     1.550000000     2.499000000    -2.375000000
H     1.122000000     1.660000000    -2.204000000
H     2.429000000     2.263000000    -2.672000000
O     3.403000000    -3.452000000    -4.707000000
H     3.250000000    -4.085000000    -5.408000000
H     2.956000000    -3.824000000    -3.946000000
O     0.010000000     3.773000000     6.098000000
H    -0.485000000     3.285000000     6.756000000
H    -0.581000000     4.474000000     5.824000000
O     4.058000000    -2.234000000     2.812000000
H     3.854000000    -2.023000000     1.901000000
H     3.362000000    -1.814000000     3.318000000
O     3.095000000    -3.133000000    -0.274000000
H     3.920000000    -2.981000000    -0.735000000
H     2.511000000    -2.446000000    -0.596000000
O    -1.209000000    -0.574000000     7.355000000
H    -0.713000000    -0.719000000     6.549000000
H    -2.118000000    -0.494000000     7.066000000
O    -7.186000000    -2.159000000    -2.641000000
H    -6.609000000    -1.578000000    -3.136000000
H    -8.063000000    -1.801000000    -2.781000000
O     1.195000000     1.301000000     5.046000000
H     1.237000000     2.168000000     5.449000000
H     1.705000000     1.386000000     4.241000000
O    -6.037000000     0.212000000    -3.987000000
H    -6.393000000     0.790000000    -3.313000000
H    -5.089000000     0.314000000    -3.915000000
O     0.689000000     3.484000000     3.242000000
H     1.355000000     2.817000000     3.073000000
H     0.807000000     3.712000000     4.164000000
O    -0.627000000    -4.214000000    -2.659000000
H    -0.732000000    -4.090000000    -1.715000000
H    -1.100000000    -3.480000000    -3.050000000
O    -1.288000000    -4.394000000     1.532000000
H    -1.512000000    -5.253000000     1.173000000
H    -1.702000000    -3.771000000     0.935000000
O     1.930000000    -1.482000000     4.202000000
H     1.939000000    -0.525000000     4.220000000
H     1.206000000    -1.726000000     4.778000000
O    -1.486000000     1.046000000     5.030000000
H    -1.800000000     1.772000000     4.491000000
H    -0.550000000     1.216000000     5.138000000
O    -2.012000000     2.122000000    -1.663000000
H    -1.325000000     1.605000000    -1.242000000
H    -1.569000000     2.920000000    -1.952000000
O    -0.348000000     4.363000000    -2.132000000
H    -0.168000000     4.516000000    -1.205000000
H     0.424000000     3.898000000    -2.453000000
O     3.770000000     6.144000000     3.947000000
H     3.648000000     6.933000000     3.418000000
H     3.345000000     5.450000000     3.442000000
O    -3.229000000    -3.390000000    -5.611000000
H    -4.108000000    -3.724000000    -5.434000000
H    -3.171000000    -3.361000000    -6.566000000
O    -3.358000000     0.574000000    -4.269000000
H    -3.139000000     1.144000000    -3.532000000
H    -3.106000000     1.077000000    -5.043000000
O    -4.257000000     4.862000000     1.069000000
H    -4.176000000     3.910000000     1.113000000
H    -3.976000000     5.086000000     0.182000000
O    -4.441000000    -0.368000000     1.377000000
H    -4.005000000    -0.443000000     0.528000000
H    -4.257000000     0.527000000     1.663000000
O    -2.296000000     3.373000000     3.428000000
H    -2.472000000     3.869000000     4.227000000
H    -1.413000000     3.637000000     3.171000000
O    -3.627000000    -0.548000000     4.593000000
H    -2.691000000    -0.610000000     4.405000000
H    -4.046000000    -0.574000000     3.733000000
O    -3.938000000    -4.214000000     0.103000000
H    -3.572000000    -5.072000000    -0.111000000
H    -4.883000000    -4.323000000    -0.003000000
O     1.907000000     0.570000000    -4.326000000
H     2.812000000     0.348000000    -4.549000000
H     1.381000000    -0.089000000    -4.779000000
