158
-3079.58625
C    -0.281000000     1.018000000    -1.007000000
H    -0.458000000     1.719000000    -1.818000000
C    -0.048000000    -0.372000000    -1.244000000
H    -0.006000000    -0.792000000    -2.246000000
C     0.075000000    -1.205000000    -0.193000000
H     0.232000000    -2.281000000    -0.396000000
C     0.167000000    -0.653000000     1.076000000
H     0.441000000    -1.337000000     1.875000000
C    -0.002000000     0.712000000     1.349000000
H     0.239000000     1.121000000     2.327000000
C    -0.256000000     1.543000000     0.254000000
C    -0.406000000     3.032000000     0.401000000
O    -1.014000000     3.700000000    -0.426000000
O     0.027000000     3.539000000     1.450000000
O     2.631000000    -4.522000000     0.792000000
H     2.088000000    -5.207000000     0.402000000
H     3.201000000    -4.987000000     1.404000000
O     0.960000000     5.956000000    -0.199000000
H     0.301000000     5.262000000    -0.224000000
H     0.852000000     6.420000000    -1.029000000
O    -3.278000000     5.142000000    -3.363000000
H    -2.343000000     5.304000000    -3.486000000
H    -3.603000000     4.939000000    -4.241000000
O     4.599000000    -1.545000000     0.435000000
H     4.573000000    -0.683000000     0.851000000
H     3.952000000    -2.061000000     0.916000000
O     3.072000000     2.052000000    -3.866000000
H     3.252000000     1.221000000    -3.426000000
H     3.935000000     2.443000000    -4.003000000
O     4.118000000    -3.299000000     4.895000000
H     3.542000000    -3.090000000     4.160000000
H     4.362000000    -2.447000000     5.258000000
O     4.538000000    -0.498000000    -2.361000000
H     5.323000000    -0.774000000    -1.887000000
H     3.907000000    -0.284000000    -1.674000000
O     3.144000000     0.897000000    -0.134000000
H     3.273000000     1.671000000     0.414000000
H     2.194000000     0.805000000    -0.198000000
O     1.208000000    -6.003000000    -1.133000000
H     0.459000000    -5.671000000    -1.629000000
H     0.856000000    -6.740000000    -0.634000000
O     2.385000000     2.696000000     2.745000000
H     1.478000000     2.862000000     2.485000000
H     2.893000000     2.837000000     1.946000000
O     1.949000000     3.506000000    -1.758000000
H     1.213000000     3.974000000    -2.153000000
H     2.354000000     3.038000000    -2.489000000
O     1.926000000     0.912000000     4.801000000
H     2.225000000     1.196000000     3.937000000
H     1.737000000     1.725000000     5.269000000
O     0.336000000     8.161000000     1.318000000
H     0.533000000     7.225000000     1.291000000
H     1.159000000     8.586000000     1.076000000
O     1.464000000     3.510000000     5.623000000
H     2.110000000     3.707000000     4.945000000
H     1.499000000     4.263000000     6.213000000
O     2.596000000    -2.744000000     2.676000000
H     1.846000000    -2.422000000     3.175000000
H     2.212000000    -3.140000000     1.894000000
O    -2.415000000     0.673000000    -5.654000000
H    -2.862000000     0.753000000    -4.812000000
H    -1.524000000     0.977000000    -5.483000000
O     1.034000000     5.592000000    -5.279000000
H     0.518000000     5.149000000    -4.606000000
H     1.432000000     4.882000000    -5.783000000
O     2.329000000    -3.646000000    -2.240000000
H     3.274000000    -3.669000000    -2.087000000
H     1.946000000    -3.970000000    -1.425000000
O     3.646000000    -6.995000000    -2.658000000
H     3.133000000    -6.440000000    -3.245000000
H     3.103000000    -7.080000000    -1.874000000
O    -0.884000000    -4.397000000    -2.069000000
H    -0.924000000    -3.881000000    -2.874000000
H    -1.634000000    -4.098000000    -1.556000000
O    -4.726000000    -3.259000000    -4.051000000
H    -4.374000000    -3.842000000    -3.378000000
H    -4.758000000    -2.400000000    -3.631000000
O    -0.964000000     6.987000000    -2.375000000
H    -0.945000000     7.347000000    -3.262000000
H    -1.025000000     7.755000000    -1.806000000
O    -1.830000000    -3.521000000    -5.152000000
H    -1.834000000    -3.060000000    -5.992000000
H    -2.579000000    -3.161000000    -4.678000000
O    -1.409000000    -5.976000000     3.373000000
H    -1.613000000    -5.595000000     2.520000000
H    -0.733000000    -5.404000000     3.736000000
O     2.252000000    -5.327000000    -4.411000000
H     2.074000000    -4.714000000    -3.698000000
H     1.607000000    -5.108000000    -5.083000000
O     2.307000000    -1.163000000    -4.234000000
H     2.442000000    -1.792000000    -3.525000000
H     3.057000000    -0.572000000    -4.175000000
O     0.483000000     1.023000000    -4.744000000
H     0.761000000     0.107000000    -4.707000000
H     1.297000000     1.523000000    -4.677000000
O    -3.933000000     0.930000000     0.045000000
H    -3.107000000     0.776000000    -0.415000000
H    -3.675000000     1.091000000     0.952000000
O    -3.591000000    -4.117000000    -1.463000000
H    -4.329000000    -4.718000000    -1.570000000
H    -3.898000000    -3.472000000    -0.826000000
O    -2.513000000     4.697000000     2.027000000
H    -1.579000000     4.633000000     1.825000000
H    -2.919000000     4.955000000     1.200000000
O    -2.978000000    -5.216000000     1.167000000
H    -3.119000000    -6.043000000     0.707000000
H    -2.828000000    -4.577000000     0.470000000
O     4.168000000    -0.817000000     5.570000000
H     4.794000000    -0.216000000     5.974000000
H     3.376000000    -0.293000000     5.452000000
O    -3.700000000     5.374000000     4.553000000
H    -4.458000000     4.831000000     4.337000000
H    -3.175000000     5.381000000     3.753000000
O    -5.594000000     5.595000000     1.313000000
H    -5.357000000     5.430000000     0.400000000
H    -4.949000000     5.103000000     1.821000000
O    -2.141000000    -1.833000000     5.382000000
H    -2.536000000    -1.683000000     4.523000000
H    -1.199000000    -1.850000000     5.214000000
O    -4.030000000    -0.524000000    -3.235000000
H    -3.297000000     0.070000000    -3.074000000
H    -4.778000000    -0.101000000    -2.812000000
O    -0.750000000     4.341000000    -2.930000000
H    -0.689000000     5.230000000    -2.579000000
H    -1.034000000     3.809000000    -2.187000000
O    -1.227000000     2.647000000     4.929000000
H    -1.636000000     3.459000000     5.229000000
H    -0.305000000     2.742000000     5.167000000
O     2.848000000     6.492000000     1.745000000
H     2.421000000     6.076000000     0.996000000
H     3.407000000     7.166000000     1.358000000
O    -2.806000000     1.896000000     2.910000000
H    -2.732000000     2.796000000     2.593000000
H    -2.193000000     1.849000000     3.643000000
O    -2.741000000    -2.253000000     0.542000000
H    -2.626000000    -1.681000000     1.301000000
H    -2.005000000    -2.038000000    -0.032000000
O     5.166000000    -4.127000000    -2.314000000
H     5.445000000    -4.948000000    -1.909000000
H     5.657000000    -3.451000000    -1.847000000
O    -3.736000000     2.152000000    -2.862000000
H    -4.178000000     1.933000000    -2.042000000
H    -3.687000000     3.108000000    -2.860000000
O    -3.175000000    -0.738000000     3.168000000
H    -4.125000000    -0.845000000     3.129000000
H    -3.034000000     0.200000000     3.044000000
O     3.606000000     3.601000000     0.389000000
H     4.135000000     4.287000000    -0.019000000
H     2.864000000     3.486000000    -0.205000000
O     0.615000000    -1.877000000     4.491000000
H     1.107000000    -2.414000000     5.112000000
H     0.983000000    -0.999000000     4.589000000
O     0.714000000     5.606000000     3.439000000
H     1.537000000     5.507000000     2.961000000
H     0.225000000     4.807000000     3.242000000
O    -3.507000000     4.766000000    -0.457000000
H    -2.719000000     4.226000000    -0.400000000
H    -3.408000000     5.249000000    -1.277000000
