158
-3061.46697
C    -0.143000000    -0.090000000    -1.441000000
H    -0.379000000    -0.333000000    -2.473000000
C    -0.254000000    -1.137000000    -0.497000000
H    -0.560000000    -2.123000000    -0.835000000
C    -0.051000000    -0.941000000     0.828000000
H    -0.043000000    -1.762000000     1.523000000
C     0.240000000     0.361000000     1.231000000
H     0.322000000     0.562000000     2.296000000
C     0.343000000     1.473000000     0.371000000
H     0.554000000     2.471000000     0.746000000
C     0.126000000     1.222000000    -1.003000000
C     0.171000000     2.293000000    -2.072000000
O     0.102000000     2.044000000    -3.252000000
O     0.318000000     3.461000000    -1.704000000
O     3.971000000     1.742000000     3.606000000
H     4.511000000     2.529000000     3.683000000
H     3.189000000     1.936000000     4.123000000
O     2.413000000    -3.753000000     1.680000000
H     2.468000000    -3.710000000     0.725000000
H     2.702000000    -4.640000000     1.897000000
O     0.722000000     6.778000000     3.445000000
H     0.633000000     5.836000000     3.303000000
H     0.518000000     7.169000000     2.595000000
O     0.970000000     5.857000000    -1.340000000
H     0.643000000     4.957000000    -1.331000000
H     1.236000000     6.005000000    -2.248000000
O    -4.210000000     2.998000000    -3.782000000
H    -4.715000000     3.307000000    -3.030000000
H    -3.574000000     3.695000000    -3.945000000
O    -3.891000000    -5.196000000     0.407000000
H    -3.783000000    -5.544000000     1.292000000
H    -4.183000000    -4.294000000     0.540000000
O     0.964000000    -4.730000000     4.380000000
H     1.588000000    -4.508000000     3.689000000
H     1.265000000    -4.236000000     5.142000000
O     2.034000000    -1.646000000     3.512000000
H     2.191000000    -2.514000000     3.140000000
H     2.650000000    -1.074000000     3.054000000
O     4.658000000     3.130000000    -0.363000000
H     4.500000000     4.061000000    -0.207000000
H     4.989000000     3.090000000    -1.260000000
O    -4.677000000    -0.105000000     1.794000000
H    -5.370000000     0.221000000     1.219000000
H    -3.864000000     0.140000000     1.352000000
O    -3.199000000     7.436000000    -1.450000000
H    -2.834000000     6.569000000    -1.629000000
H    -3.943000000     7.269000000    -0.872000000
O     2.996000000    -4.635000000    -0.853000000
H     2.105000000    -4.758000000    -1.179000000
H     3.320000000    -5.523000000    -0.701000000
O     2.519000000     4.241000000     1.855000000
H     2.276000000     4.774000000     1.098000000
H     3.177000000     3.632000000     1.518000000
O     3.150000000     3.155000000    -3.883000000
H     2.774000000     2.772000000    -4.677000000
H     2.478000000     3.024000000    -3.214000000
O    -0.368000000     1.228000000     5.982000000
H    -1.203000000     1.342000000     5.529000000
H    -0.430000000     1.802000000     6.746000000
O     0.962000000     7.512000000     0.755000000
H     0.424000000     8.176000000     0.323000000
H     1.084000000     6.834000000     0.091000000
O    -0.744000000     4.034000000     5.993000000
H    -0.617000000     4.100000000     5.046000000
H    -0.454000000     4.880000000     6.333000000
O     3.021000000    -0.565000000    -0.355000000
H     2.075000000    -0.490000000    -0.228000000
H     3.386000000    -0.527000000     0.529000000
O     0.960000000     0.815000000    -5.453000000
H     0.408000000     1.216000000    -4.780000000
H     1.491000000     1.538000000    -5.787000000
O     1.734000000     5.239000000    -6.058000000
H     0.981000000     4.825000000    -5.638000000
H     2.295000000     4.509000000    -6.319000000
O     3.818000000    -2.502000000    -2.367000000
H     3.514000000    -3.328000000    -1.989000000
H     3.599000000    -1.843000000    -1.709000000
O     1.987000000    -4.541000000    -4.289000000
H     1.485000000    -4.691000000    -3.487000000
H     2.901000000    -4.564000000    -4.007000000
O     1.722000000     6.551000000    -3.869000000
H     1.760000000     7.490000000    -4.052000000
H     1.838000000     6.136000000    -4.723000000
O     3.368000000    -6.384000000     1.848000000
H     3.990000000    -7.043000000     1.540000000
H     3.383000000    -6.467000000     2.801000000
O    -0.387000000    -1.207000000    -7.439000000
H    -0.629000000    -0.760000000    -8.250000000
H    -0.149000000    -0.500000000    -6.838000000
O    -0.103000000    -5.626000000     0.446000000
H    -0.676000000    -6.311000000     0.789000000
H    -0.180000000    -4.911000000     1.077000000
O     3.111000000    -0.984000000    -4.548000000
H     3.366000000    -1.481000000    -3.771000000
H     2.209000000    -0.715000000    -4.374000000
O    -1.604000000    -4.126000000     2.654000000
H    -0.955000000    -3.837000000     3.296000000
H    -2.011000000    -4.894000000     3.055000000
O     2.596000000     2.742000000    -6.622000000
H     3.321000000     2.119000000    -6.677000000
H     2.379000000     2.939000000    -7.533000000
O    -0.697000000     2.337000000    -7.773000000
H    -1.200000000     3.146000000    -7.676000000
H    -0.046000000     2.374000000    -7.073000000
O    -3.754000000    -4.513000000    -2.427000000
H    -3.738000000    -3.612000000    -2.750000000
H    -3.616000000    -4.432000000    -1.484000000
O    -2.122000000    -3.751000000     6.230000000
H    -2.984000000    -3.569000000     5.857000000
H    -1.529000000    -3.163000000     5.762000000
O    -1.923000000     5.303000000    -1.668000000
H    -1.104000000     4.831000000    -1.812000000
H    -2.144000000     5.126000000    -0.753000000
O    -0.888000000    -3.367000000    -4.370000000
H    -0.736000000    -4.184000000    -4.844000000
H    -0.065000000    -2.885000000    -4.452000000
O     0.509000000    -4.893000000    -2.039000000
H     0.147000000    -5.197000000    -1.206000000
H    -0.249000000    -4.574000000    -2.527000000
O     4.264000000    -0.461000000     2.257000000
H     4.840000000    -1.005000000     2.794000000
H     4.150000000     0.342000000     2.765000000
O     2.262000000     2.238000000     5.530000000
H     2.461000000     2.557000000     6.410000000
H     1.435000000     1.766000000     5.628000000
O    -3.437000000    -2.066000000    -3.527000000
H    -3.328000000    -1.145000000    -3.291000000
H    -2.685000000    -2.260000000    -4.086000000
O    -0.313000000     3.768000000    -5.074000000
H    -1.109000000     4.218000000    -4.793000000
H    -0.005000000     3.313000000    -4.289000000
O     0.474000000     3.754000000     3.488000000
H     1.133000000     3.921000000     2.814000000
H     0.905000000     3.158000000     4.101000000
O    -2.331000000     5.181000000     3.389000000
H    -2.489000000     5.221000000     2.446000000
H    -1.752000000     4.427000000     3.503000000
O    -2.606000000     5.193000000    -4.113000000
H    -2.251000000     5.516000000    -3.285000000
H    -2.919000000     5.978000000    -4.562000000
O    -3.854000000    -2.784000000     1.581000000
H    -4.012000000    -1.850000000     1.711000000
H    -2.948000000    -2.916000000     1.863000000
O    -3.115000000     5.249000000     0.750000000
H    -3.604000000     4.428000000     0.699000000
H    -3.781000000     5.930000000     0.661000000
O    -2.847000000     0.800000000     0.117000000
H    -2.002000000     0.355000000     0.050000000
H    -3.151000000     0.874000000    -0.788000000
O     3.497000000     5.489000000    -0.411000000
H     4.137000000     6.075000000    -0.815000000
H     2.708000000     5.592000000    -0.944000000
O    -0.447000000    -1.657000000     4.701000000
H     0.403000000    -1.649000000     4.260000000
H    -0.569000000    -0.756000000     5.001000000
O    -2.854000000     0.765000000    -3.050000000
H    -1.995000000     1.028000000    -3.380000000
H    -3.435000000     1.486000000    -3.294000000
