158
-3044.15228
C    -0.443000000     1.129000000     0.895000000
H    -0.874000000     1.914000000     1.511000000
C    -1.259000000     0.319000000     0.150000000
H    -2.338000000     0.283000000     0.274000000
C    -0.780000000    -0.725000000    -0.672000000
H    -1.465000000    -1.200000000    -1.293000000
C     0.597000000    -0.947000000    -0.715000000
H     1.043000000    -1.730000000    -1.322000000
C     1.442000000    -0.104000000    -0.004000000
H     2.500000000    -0.068000000    -0.255000000
C     0.990000000     0.936000000     0.832000000
C     2.022000000     1.760000000     1.629000000
O     1.676000000     2.481000000     2.484000000
O     3.160000000     1.809000000     1.263000000
O     1.607000000    -5.493000000     2.064000000
H     1.564000000    -5.762000000     1.147000000
H     1.618000000    -4.536000000     2.032000000
O     3.177000000     4.537000000     0.723000000
H     3.250000000     3.600000000     0.901000000
H     2.769000000     4.900000000     1.509000000
O     7.348000000    -0.216000000     0.284000000
H     7.792000000     0.219000000     1.013000000
H     6.910000000    -0.967000000     0.685000000
O     4.337000000     2.546000000    -3.047000000
H     3.414000000     2.701000000    -2.847000000
H     4.614000000     1.888000000    -2.410000000
O     5.956000000     4.463000000     1.148000000
H     5.223000000     4.405000000     0.535000000
H     6.734000000     4.342000000     0.603000000
O     4.707000000     0.926000000    -0.795000000
H     5.582000000     0.723000000    -0.466000000
H     4.197000000     1.130000000    -0.011000000
O    -7.355000000     1.223000000    -0.476000000
H    -7.098000000     1.649000000    -1.294000000
H    -6.570000000     0.752000000    -0.195000000
O    -4.548000000    -3.323000000     0.559000000
H    -4.522000000    -4.277000000     0.488000000
H    -5.385000000    -3.137000000     0.985000000
O    -1.706000000     1.607000000    -3.130000000
H    -2.153000000     1.754000000    -2.297000000
H    -1.072000000     2.321000000    -3.192000000
O    -5.587000000    -1.272000000    -4.371000000
H    -6.373000000    -0.728000000    -4.322000000
H    -5.316000000    -1.384000000    -3.460000000
O     4.534000000     1.035000000     3.440000000
H     3.970000000     1.211000000     2.688000000
H     4.975000000     1.868000000     3.609000000
O     4.857000000     0.975000000     6.407000000
H     4.041000000     0.578000000     6.712000000
H     4.711000000     1.138000000     5.475000000
O    -1.461000000     6.912000000     2.882000000
H    -1.329000000     7.395000000     3.698000000
H    -1.133000000     6.032000000     3.069000000
O    -4.922000000     0.537000000     1.024000000
H    -4.781000000    -0.271000000     1.517000000
H    -4.080000000     0.990000000     1.060000000
O     0.818000000     3.123000000     7.180000000
H     1.586000000     3.372000000     6.667000000
H     1.136000000     2.440000000     7.771000000
O     4.822000000    -1.600000000     3.930000000
H     4.594000000    -0.670000000     3.916000000
H     4.087000000    -2.033000000     3.495000000
O     4.369000000    -1.694000000    -2.206000000
H     4.472000000    -0.982000000    -1.575000000
H     4.518000000    -1.284000000    -3.057000000
O    -1.402000000    -0.877000000    -4.126000000
H    -2.130000000    -1.067000000    -4.719000000
H    -1.546000000     0.029000000    -3.853000000
O     1.552000000     1.595000000    -2.953000000
H     1.953000000     1.234000000    -3.744000000
H     1.273000000     0.827000000    -2.455000000
O     0.247000000    -4.170000000    -6.216000000
H    -0.137000000    -4.990000000    -5.906000000
H    -0.419000000    -3.797000000    -6.793000000
O    -0.230000000    -3.372000000    -3.676000000
H    -0.093000000    -3.632000000    -4.587000000
H    -0.386000000    -2.428000000    -3.717000000
O    -1.824000000     3.100000000     5.568000000
H    -1.289000000     3.339000000     6.325000000
H    -2.666000000     3.526000000     5.725000000
O     2.896000000    -2.754000000     2.558000000
H     3.064000000    -3.177000000     1.715000000
H     1.943000000    -2.681000000     2.603000000
O     3.115000000    -3.913000000    -0.085000000
H     3.536000000    -3.169000000    -0.515000000
H     2.385000000    -4.140000000    -0.661000000
O    -3.619000000    -3.149000000    -5.055000000
H    -4.504000000    -2.798000000    -5.148000000
H    -3.264000000    -3.143000000    -5.944000000
O     0.976000000     0.380000000     4.554000000
H     1.646000000     0.163000000     5.204000000
H     1.348000000     1.113000000     4.063000000
O     4.594000000     5.271000000    -2.263000000
H     5.439000000     5.719000000    -2.302000000
H     4.799000000     4.356000000    -2.454000000
O    -4.276000000    -1.555000000    -2.057000000
H    -4.128000000    -1.885000000    -1.170000000
H    -3.485000000    -1.798000000    -2.538000000
O     8.043000000     2.473000000     3.953000000
H     8.289000000     2.796000000     4.819000000
H     7.152000000     2.797000000     3.820000000
O    -0.692000000     4.144000000     3.266000000
H     0.089000000     3.656000000     3.003000000
H    -0.967000000     3.732000000     4.085000000
O     0.772000000    -4.854000000    -1.396000000
H     0.351000000    -5.711000000    -1.461000000
H     0.495000000    -4.391000000    -2.187000000
O    -1.041000000    -5.042000000     1.213000000
H    -1.880000000    -5.212000000     0.786000000
H    -0.481000000    -5.768000000     0.939000000
O     0.274000000    -2.916000000     2.358000000
H    -0.211000000    -3.633000000     1.949000000
H    -0.239000000    -2.133000000     2.155000000
O    -1.405000000     0.310000000     5.383000000
H    -1.638000000     1.237000000     5.321000000
H    -0.505000000     0.268000000     5.060000000
O    -1.560000000     3.813000000    -1.526000000
H    -0.677000000     3.444000000    -1.535000000
H    -1.821000000     3.789000000    -0.606000000
O     1.224000000     4.138000000    -1.252000000
H     1.886000000     4.414000000    -0.619000000
H     1.546000000     3.301000000    -1.586000000
O     3.406000000     3.486000000     6.324000000
H     4.071000000     4.169000000     6.240000000
H     3.891000000     2.666000000     6.224000000
O     2.485000000     4.548000000     3.749000000
H     2.170000000     3.743000000     3.337000000
H     2.698000000     4.290000000     4.646000000
O    -2.499000000    -5.252000000    -3.199000000
H    -1.881000000    -4.575000000    -3.475000000
H    -3.361000000    -4.879000000    -3.380000000
O    -2.922000000     1.795000000    -5.703000000
H    -2.903000000     1.789000000    -4.746000000
H    -2.751000000     2.706000000    -5.940000000
O    -2.710000000    -2.917000000     2.463000000
H    -3.317000000    -2.982000000     1.726000000
H    -2.382000000    -3.809000000     2.582000000
O    -1.366000000    -6.408000000    -5.443000000
H    -2.134000000    -6.757000000    -5.895000000
H    -1.718000000    -6.007000000    -4.648000000
O    -2.401000000     4.118000000     1.003000000
H    -3.144000000     4.667000000     1.252000000
H    -1.998000000     3.868000000     1.834000000
O    -3.528000000    -0.394000000     3.305000000
H    -2.951000000    -0.033000000     3.977000000
H    -3.082000000    -1.186000000     3.006000000
O     5.405000000     3.896000000     3.768000000
H     5.462000000     4.816000000     4.026000000
H     5.363000000     3.917000000     2.812000000
O     1.845000000     7.148000000     4.948000000
H     2.172000000     6.329000000     4.575000000
H     1.543000000     7.652000000     4.192000000
O    -4.145000000    -5.932000000     0.990000000
H    -4.185000000    -6.857000000     0.746000000
H    -4.658000000    -5.874000000     1.796000000
O     2.305000000     0.664000000    -5.299000000
H     3.188000000     0.958000000    -5.522000000
H     2.245000000    -0.216000000    -5.672000000
