158
-3070.83494
C    -1.114000000     0.878000000    -0.268000000
H    -2.005000000     1.498000000    -0.331000000
C    -1.044000000    -0.385000000    -0.805000000
H    -1.866000000    -0.784000000    -1.394000000
C     0.060000000    -1.157000000    -0.400000000
H     0.207000000    -2.206000000    -0.812000000
C     1.061000000    -0.647000000     0.440000000
H     1.895000000    -1.257000000     0.777000000
C     1.030000000     0.709000000     0.756000000
H     1.906000000     1.075000000     1.285000000
C    -0.118000000     1.503000000     0.510000000
C    -0.078000000     2.982000000     0.866000000
O    -1.002000000     3.683000000     0.561000000
O     0.924000000     3.490000000     1.375000000
O     1.738000000    -3.978000000     0.413000000
H     2.105000000    -4.862000000     0.424000000
H     2.024000000    -3.610000000    -0.423000000
O     1.046000000     6.085000000     0.562000000
H     0.864000000     5.240000000     0.972000000
H     1.466000000     5.862000000    -0.269000000
O    -5.896000000     5.831000000    -0.154000000
H    -6.177000000     5.233000000    -0.847000000
H    -5.142000000     5.397000000     0.245000000
O     5.687000000    -1.968000000     1.146000000
H     5.098000000    -2.107000000     1.887000000
H     6.224000000    -2.760000000     1.115000000
O     2.101000000     1.930000000    -2.468000000
H     1.607000000     1.286000000    -1.961000000
H     2.484000000     2.510000000    -1.809000000
O     2.884000000     3.495000000    -0.520000000
H     2.246000000     3.468000000     0.193000000
H     2.928000000     4.419000000    -0.767000000
O    -4.879000000     1.783000000    -3.288000000
H    -5.055000000     1.765000000    -2.347000000
H    -4.332000000     2.559000000    -3.415000000
O     2.792000000    -6.565000000    -4.572000000
H     3.627000000    -6.676000000    -4.116000000
H     2.216000000    -6.162000000    -3.922000000
O     3.438000000    -6.683000000     0.121000000
H     2.537000000    -6.982000000     0.000000000
H     3.660000000    -6.948000000     1.014000000
O     3.014000000     2.882000000     3.097000000
H     2.456000000     2.957000000     2.323000000
H     3.730000000     3.496000000     2.936000000
O     2.183000000     5.768000000    -1.932000000
H     1.953000000     5.168000000    -2.642000000
H     2.761000000     6.413000000    -2.341000000
O     0.842000000    -7.332000000     0.010000000
H     0.524000000    -8.229000000     0.117000000
H     0.372000000    -6.830000000     0.676000000
O     3.291000000    -3.696000000    -5.112000000
H     2.387000000    -3.822000000    -4.825000000
H     3.794000000    -4.334000000    -4.607000000
O     2.725000000     2.660000000     5.985000000
H     2.418000000     2.651000000     5.078000000
H     2.951000000     3.574000000     6.152000000
O    -2.946000000     7.756000000     2.248000000
H    -2.531000000     7.819000000     1.387000000
H    -2.447000000     7.080000000     2.706000000
O    -4.675000000     1.900000000    -0.430000000
H    -5.279000000     1.712000000     0.289000000
H    -4.315000000     2.762000000    -0.221000000
O     3.369000000    -0.015000000     3.454000000
H     3.588000000     0.914000000     3.526000000
H     2.429000000    -0.053000000     3.629000000
O    -0.392000000     6.442000000    -3.930000000
H    -0.699000000     6.116000000    -3.084000000
H     0.117000000     5.718000000    -4.295000000
O     3.982000000    -0.675000000    -1.809000000
H     4.608000000    -0.786000000    -1.093000000
H     4.364000000     0.010000000    -2.357000000
O     4.419000000    -5.322000000    -1.674000000
H     3.738000000    -4.683000000    -1.886000000
H     4.050000000    -5.834000000    -0.954000000
O    -2.468000000    -4.247000000    -1.388000000
H    -2.925000000    -4.989000000    -1.786000000
H    -2.134000000    -3.745000000    -2.132000000
O    -4.014000000    -0.836000000    -2.893000000
H    -4.572000000    -0.067000000    -3.007000000
H    -3.982000000    -0.971000000    -1.946000000
O    -1.375000000     7.896000000     0.094000000
H    -0.600000000     7.515000000     0.506000000
H    -1.031000000     8.590000000    -0.467000000
O     0.540000000    -0.637000000    -4.845000000
H     0.464000000    -1.483000000    -4.404000000
H     1.470000000    -0.563000000    -5.063000000
O    -1.709000000    -2.323000000    -3.414000000
H    -1.996000000    -2.238000000    -4.323000000
H    -2.277000000    -1.726000000    -2.927000000
O     2.510000000    -3.334000000     3.402000000
H     2.138000000    -3.129000000     2.544000000
H     2.753000000    -2.483000000     3.767000000
O     2.701000000    -3.252000000    -2.102000000
H     3.235000000    -2.469000000    -1.965000000
H     2.225000000    -3.077000000    -2.915000000
O    -3.955000000    -1.943000000    -5.440000000
H    -3.807000000    -1.362000000    -4.693000000
H    -4.856000000    -1.763000000    -5.709000000
O    -0.418000000     1.793000000    -3.887000000
H     0.261000000     2.025000000    -3.254000000
H    -0.383000000     0.838000000    -3.937000000
O     0.540000000    -0.074000000     4.404000000
H     0.724000000    -0.246000000     5.327000000
H     0.381000000     0.870000000     4.364000000
O    -5.457000000     2.985000000     2.923000000
H    -5.850000000     3.423000000     3.679000000
H    -4.697000000     2.525000000     3.281000000
O    -5.001000000    -1.548000000    -0.500000000
H    -5.334000000    -2.419000000    -0.284000000
H    -5.457000000    -0.961000000     0.102000000
O     1.358000000    -5.947000000     3.348000000
H     1.974000000    -6.630000000     3.084000000
H     1.854000000    -5.132000000     3.265000000
O    -0.968000000     5.586000000     2.701000000
H    -0.875000000     4.927000000     2.013000000
H    -1.059000000     5.078000000     3.508000000
O     0.777000000    -3.523000000    -3.767000000
H     0.501000000    -4.325000000    -3.324000000
H    -0.030000000    -3.023000000    -3.882000000
O    -1.245000000    -3.828000000     1.044000000
H    -0.375000000    -3.632000000     0.696000000
H    -1.761000000    -4.073000000     0.276000000
O    -2.634000000    -3.158000000     3.390000000
H    -2.096000000    -3.553000000     2.704000000
H    -2.975000000    -2.356000000     2.995000000
O    -3.758000000     4.398000000    -2.072000000
H    -2.841000000     4.614000000    -2.244000000
H    -3.833000000     4.416000000    -1.118000000
O    -1.397000000     5.394000000    -1.571000000
H    -1.749000000     5.999000000    -0.917000000
H    -0.946000000     4.723000000    -1.059000000
O     1.855000000     7.882000000     2.439000000
H     1.486000000     7.086000000     2.058000000
H     1.965000000     8.475000000     1.695000000
O     0.181000000     2.867000000     4.351000000
H     0.364000000     2.867000000     3.412000000
H     0.444000000     3.739000000     4.647000000
O    -5.221000000    -3.361000000    -2.882000000
H    -4.867000000    -2.474000000    -2.939000000
H    -5.337000000    -3.513000000    -1.944000000
O    -1.984000000    -0.533000000     2.333000000
H    -1.715000000    -0.213000000     1.472000000
H    -1.184000000    -0.894000000     2.715000000
O    -3.704000000     4.356000000     0.779000000
H    -4.046000000     4.223000000     1.663000000
H    -2.804000000     4.032000000     0.820000000
O    -3.068000000     1.986000000     3.695000000
H    -2.786000000     1.963000000     4.609000000
H    -2.864000000     1.113000000     3.359000000
O     4.299000000     5.452000000     2.161000000
H     3.930000000     6.305000000     2.392000000
H     4.994000000     5.654000000     1.534000000
O     1.011000000     5.389000000     5.052000000
H     1.868000000     5.428000000     4.627000000
H     0.527000000     6.129000000     4.686000000
O     0.564000000    -5.759000000    -2.547000000
H     0.771000000    -5.590000000    -1.628000000
H     0.053000000    -6.569000000    -2.533000000
