158
-3009.64075
C     1.328000000    -0.661000000    -0.278000000
H     2.180000000    -1.317000000    -0.436000000
C     0.475000000    -0.901000000     0.829000000
H     0.725000000    -1.705000000     1.517000000
C    -0.663000000    -0.179000000     1.034000000
H    -1.265000000    -0.529000000     1.865000000
C    -1.070000000     0.831000000     0.078000000
H    -1.963000000     1.438000000     0.202000000
C    -0.232000000     0.993000000    -1.066000000
H    -0.463000000     1.791000000    -1.767000000
C     0.893000000     0.217000000    -1.284000000
C     1.616000000     0.279000000    -2.566000000
O     2.433000000    -0.576000000    -2.952000000
O     1.422000000     1.222000000    -3.323000000
O    -4.840000000     2.714000000     0.541000000
H    -4.794000000     3.570000000     0.967000000
H    -4.045000000     2.262000000     0.825000000
O     2.024000000    -6.287000000     2.492000000
H     2.170000000    -6.545000000     3.402000000
H     1.414000000    -5.551000000     2.547000000
O    -5.880000000     0.267000000     4.539000000
H    -5.874000000     0.328000000     5.494000000
H    -6.430000000    -0.494000000     4.351000000
O     3.286000000    -0.097000000     2.573000000
H     2.525000000     0.180000000     3.084000000
H     3.884000000    -0.472000000     3.220000000
O    -5.774000000    -1.057000000    -0.857000000
H    -5.283000000    -0.320000000    -1.221000000
H    -5.650000000    -0.983000000     0.089000000
O     4.036000000    -2.244000000    -4.856000000
H     3.809000000    -3.140000000    -4.609000000
H     3.758000000    -1.712000000    -4.111000000
O    -6.246000000     1.693000000    -2.672000000
H    -5.316000000     1.717000000    -2.448000000
H    -6.696000000     1.892000000    -1.851000000
O     2.995000000    -5.163000000    -0.068000000
H     2.455000000    -5.861000000     0.303000000
H     2.675000000    -5.064000000    -0.965000000
O    -0.112000000     4.272000000    -5.682000000
H     0.044000000     4.299000000    -6.626000000
H    -0.682000000     5.022000000    -5.512000000
O    -2.052000000    -6.158000000     3.844000000
H    -1.316000000    -6.737000000     4.043000000
H    -1.677000000    -5.473000000     3.291000000
O     5.322000000    -1.348000000     0.901000000
H     5.788000000    -2.000000000     1.425000000
H     4.622000000    -1.035000000     1.474000000
O    -3.613000000     0.998000000    -2.051000000
H    -3.090000000     0.778000000    -2.822000000
H    -3.288000000     1.855000000    -1.777000000
O    -1.712000000     5.237000000     3.262000000
H    -1.467000000     4.681000000     4.002000000
H    -1.699000000     6.126000000     3.616000000
O    -2.483000000    -0.125000000     4.568000000
H    -3.152000000    -0.766000000     4.808000000
H    -1.946000000    -0.033000000     5.356000000
O     1.498000000     3.878000000    -3.241000000
H     1.044000000     4.067000000    -4.062000000
H     1.605000000     2.927000000    -3.239000000
O     3.320000000     5.628000000    -1.707000000
H     3.637000000     5.088000000    -0.983000000
H     2.861000000     5.015000000    -2.281000000
O    -0.859000000    -0.978000000     6.974000000
H    -0.573000000    -1.856000000     6.720000000
H    -1.607000000    -1.128000000     7.552000000
O     2.610000000     0.026000000    -5.738000000
H     2.239000000     0.000000000    -4.856000000
H     3.365000000    -0.561000000    -5.698000000
O    -4.545000000    -3.386000000     0.992000000
H    -4.911000000    -3.625000000     0.141000000
H    -5.049000000    -2.619000000     1.264000000
O     4.389000000     1.547000000    -2.960000000
H     3.693000000     0.891000000    -2.942000000
H     4.131000000     2.152000000    -3.654000000
O    -1.915000000    -4.003000000     0.277000000
H    -1.795000000    -3.089000000     0.019000000
H    -2.834000000    -4.060000000     0.538000000
O     3.588000000    -2.350000000     5.098000000
H     3.106000000    -2.869000000     5.742000000
H     3.305000000    -2.696000000     4.251000000
O     3.832000000     3.611000000     0.092000000
H     3.112000000     3.085000000     0.440000000
H     4.508000000     2.973000000    -0.135000000
O     3.552000000     2.933000000    -5.326000000
H     2.716000000     2.467000000    -5.328000000
H     4.198000000     2.266000000    -5.561000000
O     0.864000000     1.384000000    -7.467000000
H     0.572000000     0.658000000    -8.018000000
H     1.424000000     0.974000000    -6.808000000
O     0.811000000    -3.285000000    -6.678000000
H     1.110000000    -2.787000000    -5.917000000
H    -0.116000000    -3.058000000    -6.763000000
O    -6.182000000     2.873000000     3.686000000
H    -5.239000000     2.841000000     3.525000000
H    -6.453000000     1.955000000     3.705000000
O     0.594000000    -2.598000000    -3.034000000
H     1.197000000    -3.334000000    -3.132000000
H     1.129000000    -1.824000000    -3.211000000
O    -0.697000000    -2.196000000     4.065000000
H    -1.397000000    -1.566000000     3.892000000
H    -1.096000000    -2.842000000     4.648000000
O    -0.676000000     2.196000000     3.248000000
H    -0.414000000     1.288000000     3.399000000
H    -0.406000000     2.658000000     4.042000000
O    -3.607000000     1.702000000     3.010000000
H    -2.758000000     2.076000000     2.773000000
H    -3.395000000     0.997000000     3.622000000
O    -3.947000000     3.901000000    -3.648000000
H    -3.556000000     3.676000000    -2.804000000
H    -4.541000000     4.626000000    -3.452000000
O    -0.053000000    -4.450000000     2.406000000
H    -0.578000000    -4.231000000     1.636000000
H    -0.255000000    -3.758000000     3.037000000
O     0.116000000     5.588000000    -1.243000000
H     0.778000000     4.966000000    -1.544000000
H    -0.052000000     5.339000000    -0.335000000
O    -0.915000000     1.955000000    -4.365000000
H    -0.046000000     1.651000000    -4.105000000
H    -0.754000000     2.784000000    -4.816000000
O    -2.820000000     3.926000000    -1.208000000
H    -1.910000000     3.979000000    -0.914000000
H    -3.275000000     4.598000000    -0.700000000
O    -1.661000000     5.978000000    -3.577000000
H    -2.487000000     5.571000000    -3.838000000
H    -1.723000000     6.054000000    -2.625000000
O    -3.710000000    -2.545000000     5.283000000
H    -3.164000000    -3.116000000     5.823000000
H    -4.607000000    -2.762000000     5.536000000
O     3.614000000    -4.853000000    -4.323000000
H     4.416000000    -4.854000000    -3.801000000
H     2.911000000    -4.965000000    -3.683000000
O     1.254000000     0.053000000     4.312000000
H     1.620000000     0.108000000     5.194000000
H     0.752000000    -0.762000000     4.311000000
O     7.037000000     0.763000000    -2.410000000
H     7.047000000     0.258000000    -1.598000000
H     6.108000000     0.890000000    -2.602000000
O     5.593000000    -3.908000000    -0.569000000
H     5.725000000    -3.142000000    -0.010000000
H     4.729000000    -4.239000000    -0.321000000
O    -1.644000000    -1.942000000    -1.593000000
H    -0.909000000    -1.975000000    -2.206000000
H    -1.414000000    -1.243000000    -0.981000000
O    -5.219000000    -0.902000000     1.718000000
H    -4.791000000    -0.142000000     2.113000000
H    -5.872000000    -1.172000000     2.364000000
O    -0.877000000     4.161000000     0.746000000
H    -0.927000000     3.282000000     1.120000000
H    -1.216000000     4.734000000     1.434000000
O     3.688000000    -3.556000000     2.508000000
H     3.220000000    -3.669000000     1.681000000
H     3.844000000    -4.448000000     2.818000000
O     2.100000000     1.936000000     1.144000000
H     2.681000000     1.206000000     1.354000000
H     1.296000000     1.521000000     0.831000000
O    -2.915000000     0.238000000    -4.923000000
H    -2.702000000    -0.407000000    -5.598000000
H    -2.146000000     0.807000000    -4.886000000
