158
-3008.76769
C    -0.325000000    -0.655000000    -1.203000000
H    -0.867000000    -1.152000000    -2.004000000
C    -0.599000000    -1.177000000     0.095000000
H    -1.260000000    -2.025000000     0.253000000
C    -0.095000000    -0.463000000     1.165000000
H    -0.473000000    -0.865000000     2.099000000
C     0.535000000     0.760000000     0.914000000
H     0.736000000     1.382000000     1.782000000
C     0.888000000     1.221000000    -0.364000000
H     1.362000000     2.195000000    -0.455000000
C     0.443000000     0.477000000    -1.488000000
C     0.556000000     1.013000000    -2.899000000
O    -0.036000000     0.457000000    -3.791000000
O     1.179000000     1.990000000    -3.253000000
O     3.828000000    -4.585000000     4.150000000
H     2.943000000    -4.225000000     4.202000000
H     3.875000000    -4.981000000     3.279000000
O    -0.555000000    -4.563000000     6.214000000
H    -0.614000000    -5.274000000     6.852000000
H    -0.057000000    -4.936000000     5.486000000
O     1.080000000    -0.833000000     4.882000000
H     1.401000000    -0.009000000     5.249000000
H     0.949000000    -0.646000000     3.953000000
O     0.506000000     4.999000000     3.231000000
H     0.432000000     4.882000000     2.284000000
H     0.232000000     4.159000000     3.599000000
O    -3.600000000     1.926000000    -1.877000000
H    -3.241000000     2.807000000    -1.984000000
H    -3.808000000     1.864000000    -0.944000000
O    -1.351000000    -1.682000000     6.679000000
H    -1.330000000    -2.593000000     6.385000000
H    -0.736000000    -1.651000000     7.411000000
O    -0.968000000    -6.190000000    -1.360000000
H    -1.278000000    -5.798000000    -0.544000000
H    -0.019000000    -6.251000000    -1.251000000
O     0.032000000    -4.223000000     3.278000000
H    -0.842000000    -3.832000000     3.261000000
H     0.470000000    -3.864000000     2.506000000
O     2.162000000    -3.687000000     1.349000000
H     2.785000000    -4.023000000     0.705000000
H     2.540000000    -2.856000000     1.637000000
O     1.787000000    -3.303000000     5.951000000
H     1.610000000    -2.488000000     5.481000000
H     0.941000000    -3.553000000     6.323000000
O     4.884000000     1.084000000     2.717000000
H     4.137000000     1.676000000     2.633000000
H     4.966000000     0.932000000     3.658000000
O    -1.696000000    -5.252000000     0.895000000
H    -1.210000000    -5.485000000     1.686000000
H    -2.500000000    -4.845000000     1.219000000
O     0.325000000    -4.293000000    -5.387000000
H     0.619000000    -3.627000000    -6.009000000
H     0.329000000    -3.848000000    -4.540000000
O    -2.228000000    -0.537000000     4.225000000
H    -2.517000000     0.364000000     4.367000000
H    -1.830000000    -0.795000000     5.056000000
O     2.382000000     2.591000000     3.165000000
H     1.643000000     2.870000000     3.706000000
H     2.918000000     3.377000000     3.068000000
O    -0.843000000     5.812000000    -2.869000000
H    -1.319000000     6.577000000    -3.191000000
H    -0.007000000     6.161000000    -2.562000000
O     3.574000000     2.565000000     0.126000000
H     2.944000000     2.976000000    -0.466000000
H     3.652000000     1.667000000    -0.195000000
O    -1.992000000     3.330000000    -5.469000000
H    -1.345000000     3.683000000    -4.858000000
H    -1.588000000     2.531000000    -5.809000000
O    -3.879000000    -3.932000000     6.285000000
H    -3.606000000    -3.427000000     7.051000000
H    -3.130000000    -3.890000000     5.691000000
O     1.836000000     4.301000000    -1.809000000
H     1.940000000     5.023000000    -2.429000000
H     1.655000000     3.538000000    -2.358000000
O    -5.428000000     1.813000000     3.529000000
H    -5.314000000     0.981000000     3.070000000
H    -5.715000000     2.424000000     2.850000000
O     3.556000000    -0.409000000    -0.106000000
H     2.703000000    -0.300000000     0.314000000
H     4.087000000    -0.869000000     0.545000000
O     3.924000000     1.552000000    -4.084000000
H     2.993000000     1.547000000    -3.859000000
H     4.315000000     2.179000000    -3.475000000
O     2.729000000    -2.055000000    -2.345000000
H     2.012000000    -1.585000000    -1.920000000
H     3.514000000    -1.765000000    -1.881000000
O    -4.395000000    -2.479000000    -1.549000000
H    -4.335000000    -3.428000000    -1.655000000
H    -4.420000000    -2.139000000    -2.443000000
O     0.679000000     6.292000000    -6.014000000
H     0.564000000     5.486000000    -5.510000000
H     1.255000000     6.043000000    -6.737000000
O     2.218000000    -2.413000000    -7.310000000
H     2.427000000    -1.582000000    -7.735000000
H     1.883000000    -2.165000000    -6.449000000
O    -3.742000000     0.225000000     0.782000000
H    -4.129000000    -0.257000000     0.052000000
H    -4.185000000    -0.117000000     1.558000000
O    -5.654000000    -2.047000000     4.612000000
H    -5.801000000    -1.555000000     5.420000000
H    -4.737000000    -1.882000000     4.395000000
O     1.183000000    -1.435000000    -5.213000000
H     0.564000000    -0.707000000    -5.162000000
H     1.388000000    -1.640000000    -4.301000000
O    -1.933000000     2.043000000     1.427000000
H    -2.663000000     1.474000000     1.185000000
H    -1.205000000     1.444000000     1.591000000
O     4.523000000    -1.294000000    -4.691000000
H     3.946000000    -1.446000000    -3.943000000
H     4.990000000    -0.488000000    -4.473000000
O    -2.320000000    -3.004000000     3.162000000
H    -2.997000000    -3.132000000     2.497000000
H    -2.316000000    -2.060000000     3.320000000
O     5.556000000    -0.035000000    -1.986000000
H     6.345000000    -0.185000000    -1.465000000
H     4.837000000    -0.109000000    -1.358000000
O    -2.006000000    -5.247000000    -3.756000000
H    -1.319000000    -4.652000000    -4.055000000
H    -1.687000000    -5.577000000    -2.916000000
O     2.732000000     1.757000000    -6.601000000
H     2.853000000     0.956000000    -7.111000000
H     3.370000000     1.688000000    -5.891000000
O     0.514000000     4.050000000    -4.541000000
H     0.768000000     3.201000000    -4.179000000
H     0.225000000     4.557000000    -3.783000000
O     0.343000000    -3.294000000    -2.690000000
H     1.112000000    -3.403000000    -2.132000000
H    -0.300000000    -2.858000000    -2.130000000
O     4.022000000    -1.466000000     2.498000000
H     4.758000000    -2.074000000     2.562000000
H     4.423000000    -0.598000000     2.543000000
O    -3.958000000    -3.304000000     1.092000000
H    -4.832000000    -3.663000000     1.249000000
H    -3.973000000    -3.033000000     0.174000000
O     0.114000000     1.605000000    -6.196000000
H     1.052000000     1.604000000    -6.384000000
H     0.056000000     1.385000000    -5.266000000
O    -3.037000000     2.005000000     5.069000000
H    -3.228000000     2.769000000     5.613000000
H    -3.790000000     1.933000000     4.484000000
O    -3.541000000    -1.413000000    -6.394000000
H    -3.301000000    -0.954000000    -7.199000000
H    -2.974000000    -1.032000000    -5.723000000
O     0.561000000     4.673000000     0.376000000
H     0.675000000     5.622000000     0.429000000
H     1.085000000     4.410000000    -0.381000000
O    -1.362000000     0.178000000    -8.441000000
H    -0.809000000     0.676000000    -7.840000000
H    -2.069000000     0.782000000    -8.672000000
O    -1.970000000     4.751000000     1.028000000
H    -1.054000000     4.861000000     0.772000000
H    -2.058000000     3.815000000     1.206000000
O     0.008000000     3.173000000     5.326000000
H     0.167000000     3.509000000     6.208000000
H    -0.801000000     2.667000000     5.404000000
O    -2.533000000    -0.027000000    -4.310000000
H    -1.621000000     0.218000000    -4.157000000
H    -3.022000000     0.428000000    -3.624000000
