158
-2982.84507
C    -0.301000000    -0.956000000    -1.065000000
H    -0.466000000    -1.805000000    -1.724000000
C     0.109000000    -1.370000000     0.252000000
H     0.224000000    -2.413000000     0.534000000
C     0.409000000    -0.354000000     1.125000000
H     0.758000000    -0.561000000     2.144000000
C     0.215000000     1.006000000     0.741000000
H     0.312000000     1.846000000     1.425000000
C    -0.304000000     1.398000000    -0.506000000
H    -0.409000000     2.463000000    -0.698000000
C    -0.539000000     0.375000000    -1.458000000
C    -0.922000000     0.734000000    -2.882000000
O    -1.186000000    -0.124000000    -3.689000000
O    -0.844000000     1.909000000    -3.180000000
O    -2.599000000    -3.053000000     4.689000000
H    -1.835000000    -2.483000000     4.770000000
H    -3.347000000    -2.473000000     4.837000000
O     0.653000000     1.265000000     7.258000000
H     1.455000000     0.805000000     7.502000000
H     0.335000000     1.643000000     8.077000000
O     6.100000000    -0.843000000     4.160000000
H     5.237000000    -0.552000000     4.453000000
H     6.301000000    -1.596000000     4.716000000
O    -2.288000000    -3.722000000     1.573000000
H    -2.118000000    -3.375000000     2.449000000
H    -2.095000000    -4.656000000     1.644000000
O     1.645000000    -4.818000000     0.660000000
H     2.418000000    -4.379000000     0.304000000
H     1.074000000    -4.949000000    -0.097000000
O     4.246000000     2.277000000    -3.478000000
H     4.364000000     3.223000000    -3.562000000
H     3.311000000     2.167000000    -3.304000000
O     1.704000000    -6.012000000     3.210000000
H     2.485000000    -5.462000000     3.148000000
H     1.149000000    -5.722000000     2.486000000
O     2.322000000     3.969000000    -5.673000000
H     2.562000000     4.101000000    -4.756000000
H     1.543000000     3.413000000    -5.639000000
O     3.343000000    -1.047000000     4.502000000
H     3.166000000    -0.146000000     4.231000000
H     2.864000000    -1.148000000     5.324000000
O     1.340000000    -2.495000000     6.720000000
H     2.123000000    -2.566000000     7.267000000
H     0.881000000    -3.324000000     6.851000000
O    -2.977000000    -3.871000000    -6.628000000
H    -2.471000000    -4.218000000    -7.363000000
H    -2.357000000    -3.322000000    -6.148000000
O     2.406000000     1.367000000     4.375000000
H     1.497000000     1.650000000     4.474000000
H     2.861000000     1.759000000     5.120000000
O    -3.845000000     4.167000000    -0.275000000
H    -3.208000000     4.308000000    -0.975000000
H    -3.330000000     4.213000000     0.531000000
O     3.037000000     3.941000000    -0.165000000
H     2.387000000     3.624000000    -0.792000000
H     3.245000000     3.177000000     0.372000000
O    -4.111000000     4.206000000    -4.517000000
H    -3.463000000     4.326000000    -3.823000000
H    -4.627000000     3.451000000    -4.235000000
O    -2.958000000     0.806000000    -5.824000000
H    -2.503000000     0.766000000    -4.983000000
H    -3.856000000     0.544000000    -5.623000000
O     1.583000000     3.223000000    -2.801000000
H     1.201000000     4.076000000    -3.005000000
H     0.881000000     2.597000000    -2.976000000
O    -4.237000000     1.706000000     4.478000000
H    -3.397000000     1.679000000     4.021000000
H    -4.179000000     2.481000000     5.038000000
O     3.583000000    -3.691000000    -0.932000000
H     3.389000000    -4.054000000    -1.796000000
H     4.001000000    -2.849000000    -1.114000000
O    -0.323000000     2.602000000    -5.780000000
H    -0.480000000     2.081000000    -4.993000000
H     0.068000000     1.987000000    -6.400000000
O    -3.483000000    -4.814000000    -2.131000000
H    -4.265000000    -4.891000000    -2.679000000
H    -3.436000000    -5.647000000    -1.662000000
O    -2.337000000     4.257000000    -6.621000000
H    -2.717000000     4.382000000    -5.751000000
H    -1.689000000     3.563000000    -6.501000000
O     0.820000000    -2.710000000    -7.321000000
H     0.451000000    -2.551000000    -6.453000000
H     0.078000000    -2.613000000    -7.918000000
O     5.350000000     2.320000000     3.815000000
H     5.460000000     1.656000000     4.496000000
H     5.985000000     3.000000000     4.040000000
O    -3.634000000    -2.790000000    -0.494000000
H    -3.027000000    -2.990000000     0.218000000
H    -3.688000000    -3.601000000    -0.999000000
O    -1.004000000    -2.555000000    -5.232000000
H    -0.870000000    -3.156000000    -4.499000000
H    -1.221000000    -1.719000000    -4.819000000
O    -2.187000000     0.032000000    -8.486000000
H    -3.119000000     0.124000000    -8.682000000
H    -2.117000000     0.231000000    -7.552000000
O    -0.032000000    -5.652000000    -1.325000000
H    -0.536000000    -6.140000000    -0.674000000
H     0.325000000    -6.325000000    -1.905000000
O     4.321000000     4.630000000     2.440000000
H     4.485000000     4.011000000     3.151000000
H     3.963000000     4.093000000     1.733000000
O     2.633000000    -1.023000000    -1.676000000
H     2.187000000    -1.175000000    -0.843000000
H     3.459000000    -0.604000000    -1.432000000
O     5.558000000     1.589000000     1.138000000
H     4.618000000     1.725000000     1.259000000
H     5.894000000     1.439000000     2.022000000
O    -0.483000000     6.320000000    -0.266000000
H     0.124000000     6.139000000    -0.983000000
H    -0.040000000     5.986000000     0.514000000
O    -2.099000000     4.233000000    -2.537000000
H    -1.818000000     3.370000000    -2.841000000
H    -1.440000000     4.835000000    -2.884000000
O    -1.006000000    -4.634000000    -3.539000000
H    -0.502000000    -4.849000000    -2.754000000
H    -1.872000000    -4.394000000    -3.209000000
O     3.883000000    -3.976000000     3.350000000
H     4.177000000    -3.249000000     2.801000000
H     3.080000000    -3.655000000     3.762000000
O    -2.526000000     4.320000000     2.035000000
H    -3.158000000     4.936000000     2.405000000
H    -2.158000000     3.870000000     2.796000000
O     1.642000000     0.044000000    -4.249000000
H     1.882000000    -0.236000000    -3.365000000
H     0.690000000    -0.053000000    -4.280000000
O     0.188000000     5.913000000    -3.127000000
H     0.391000000     6.758000000    -2.727000000
H     0.280000000     6.065000000    -4.068000000
O     0.132000000     2.821000000     4.848000000
H     0.017000000     2.951000000     5.789000000
H     0.072000000     3.701000000     4.475000000
O     1.558000000     0.908000000    -7.072000000
H     1.740000000     0.889000000    -6.132000000
H     2.362000000     0.584000000    -7.478000000
O     3.015000000     1.807000000     1.826000000
H     2.906000000     1.721000000     2.773000000
H     2.239000000     1.386000000     1.456000000
O    -3.812000000     1.225000000    -0.881000000
H    -3.577000000     0.832000000    -0.040000000
H    -3.867000000     2.163000000    -0.700000000
O    -2.630000000    -0.164000000     1.692000000
H    -1.808000000    -0.017000000     1.226000000
H    -2.426000000     0.033000000     2.607000000
O    -1.533000000     1.014000000     4.083000000
H    -1.445000000     0.444000000     4.847000000
H    -0.894000000     1.711000000     4.229000000
O     5.205000000    -2.165000000     1.515000000
H     5.246000000    -1.431000000     2.128000000
H     5.209000000    -1.755000000     0.650000000
O    -0.637000000    -1.340000000     5.425000000
H    -1.136000000    -1.033000000     6.182000000
H     0.168000000    -1.699000000     5.799000000
O     0.732000000     5.909000000     2.269000000
H     0.159000000     5.602000000     2.972000000
H     1.600000000     5.951000000     2.669000000
O    -3.866000000    -1.032000000    -2.745000000
H    -3.173000000    -0.375000000    -2.802000000
H    -3.506000000    -1.711000000    -2.174000000
