158
-3041.23951
C     1.227000000    -0.747000000    -0.256000000
H     1.978000000    -1.532000000    -0.241000000
C     0.467000000    -0.806000000     0.920000000
H     0.700000000    -1.486000000     1.735000000
C    -0.644000000    -0.028000000     1.048000000
H    -1.197000000    -0.085000000     2.021000000
C    -0.940000000     0.914000000     0.084000000
H    -1.738000000     1.617000000     0.311000000
C    -0.187000000     0.963000000    -1.081000000
H    -0.507000000     1.661000000    -1.851000000
C     0.896000000     0.151000000    -1.330000000
C     1.685000000     0.206000000    -2.626000000
O     2.876000000    -0.139000000    -2.604000000
O     1.275000000     0.788000000    -3.607000000
O     2.976000000    -1.695000000     4.472000000
H     2.162000000    -1.324000000     4.132000000
H     2.711000000    -2.518000000     4.882000000
O    -5.759000000     1.195000000    -1.694000000
H    -5.591000000     2.134000000    -1.616000000
H    -4.918000000     0.823000000    -1.959000000
O    -3.954000000    -0.629000000    -4.850000000
H    -3.847000000    -0.621000000    -3.898000000
H    -4.020000000    -1.557000000    -5.075000000
O     1.554000000     6.337000000    -3.680000000
H     1.201000000     5.449000000    -3.739000000
H     2.376000000     6.236000000    -3.199000000
O     5.481000000    -0.142000000    -2.270000000
H     5.662000000    -0.486000000    -1.396000000
H     4.526000000    -0.155000000    -2.340000000
O    -0.760000000    -2.456000000    -6.544000000
H    -0.687000000    -2.380000000    -5.592000000
H     0.091000000    -2.794000000    -6.823000000
O     3.640000000     1.945000000    -0.329000000
H     4.358000000     1.800000000     0.286000000
H     3.742000000     1.255000000    -0.985000000
O     5.335000000    -2.480000000    -3.958000000
H     5.112000000    -2.239000000    -3.059000000
H     5.833000000    -3.293000000    -3.872000000
O     0.162000000     0.403000000    -7.613000000
H    -0.054000000     0.773000000    -8.468000000
H    -0.287000000    -0.442000000    -7.597000000
O     0.984000000    -4.530000000     0.666000000
H     1.569000000    -3.946000000     1.149000000
H     0.104000000    -4.262000000     0.932000000
O    -1.563000000    -3.506000000     1.548000000
H    -2.277000000    -2.906000000     1.330000000
H    -1.927000000    -4.075000000     2.226000000
O     1.308000000     3.616000000    -3.282000000
H     2.238000000     3.832000000    -3.339000000
H     1.234000000     2.760000000    -3.703000000
O    -3.152000000     3.352000000     3.928000000
H    -3.830000000     2.961000000     3.377000000
H    -2.954000000     2.678000000     4.579000000
O    -3.801000000     2.188000000    -4.338000000
H    -3.744000000     1.240000000    -4.463000000
H    -3.353000000     2.347000000    -3.507000000
O     3.926000000     4.021000000    -2.633000000
H     4.285000000     3.460000000    -3.320000000
H     3.638000000     3.412000000    -1.953000000
O     4.104000000     2.351000000    -5.074000000
H     3.896000000     1.432000000    -4.905000000
H     3.422000000     2.644000000    -5.678000000
O     3.106000000    -0.467000000    -5.400000000
H     2.632000000    -0.389000000    -4.572000000
H     3.743000000    -1.165000000    -5.247000000
O    -1.488000000     4.554000000    -2.932000000
H    -0.722000000     4.224000000    -3.401000000
H    -1.155000000     4.792000000    -2.067000000
O    -1.436000000    -2.290000000    -1.281000000
H    -0.737000000    -1.914000000    -0.746000000
H    -1.754000000    -3.035000000    -0.770000000
O     2.699000000     5.291000000    -0.137000000
H     2.966000000     4.477000000    -0.565000000
H     3.502000000     5.626000000     0.263000000
O    -0.763000000    -2.083000000    -3.785000000
H    -1.205000000    -2.223000000    -2.948000000
H    -1.195000000    -1.315000000    -4.159000000
O     1.596000000    -4.749000000    -2.889000000
H     1.544000000    -3.845000000    -3.201000000
H     0.739000000    -5.123000000    -3.092000000
O     3.176000000    -5.329000000    -0.790000000
H     2.724000000    -5.166000000    -1.618000000
H     2.523000000    -5.133000000    -0.118000000
O     0.522000000     2.568000000     5.583000000
H     1.277000000     2.994000000     5.989000000
H     0.337000000     3.098000000     4.807000000
O     5.214000000    -3.064000000    -0.135000000
H     4.849000000    -2.334000000     0.366000000
H     4.544000000    -3.746000000    -0.088000000
O     7.007000000    -0.580000000    -5.005000000
H     6.512000000    -1.304000000    -4.623000000
H     6.705000000     0.194000000    -4.530000000
O    -3.081000000    -0.179000000    -2.232000000
H    -2.329000000     0.276000000    -2.611000000
H    -2.697000000    -0.862000000    -1.683000000
O    -0.232000000    -3.038000000     4.467000000
H     0.248000000    -2.264000000     4.762000000
H    -1.106000000    -2.711000000     4.253000000
O     2.531000000     1.531000000     3.475000000
H     2.964000000     1.477000000     2.623000000
H     2.068000000     2.368000000     3.455000000
O     1.468000000     2.204000000    -5.864000000
H     1.168000000     1.723000000    -6.635000000
H     1.554000000     1.536000000    -5.183000000
O     3.923000000    -4.099000000     2.672000000
H     3.835000000    -3.300000000     3.191000000
H     4.853000000    -4.319000000     2.726000000
O    -3.723000000    -2.005000000     0.650000000
H    -4.315000000    -1.274000000     0.826000000
H    -3.889000000    -2.234000000    -0.265000000
O    -5.473000000     0.034000000     1.142000000
H    -5.415000000     0.803000000     1.709000000
H    -6.045000000     0.308000000     0.425000000
O     0.987000000     4.012000000     3.461000000
H     0.459000000     4.335000000     2.731000000
H     1.834000000     4.445000000     3.356000000
O    -0.471000000     5.090000000    -0.529000000
H     0.473000000     4.951000000    -0.454000000
H    -0.800000000     4.982000000     0.364000000
O     7.493000000     1.588000000    -2.491000000
H     7.142000000     0.713000000    -2.322000000
H     6.979000000     2.165000000    -1.926000000
O    -3.620000000     4.753000000    -4.566000000
H    -3.092000000     4.956000000    -3.794000000
H    -3.669000000     3.797000000    -4.579000000
O    -1.823000000     4.885000000     1.813000000
H    -2.456000000     5.593000000     1.689000000
H    -2.287000000     4.238000000     2.343000000
O    -5.768000000     2.214000000     2.989000000
H    -6.374000000     1.998000000     3.698000000
H    -6.049000000     3.078000000     2.690000000
O    -2.098000000    -2.847000000     7.305000000
H    -2.560000000    -2.645000000     6.491000000
H    -1.650000000    -3.674000000     7.127000000
O    -1.181000000     0.755000000    -4.362000000
H    -0.237000000     0.879000000    -4.461000000
H    -1.548000000     1.028000000    -5.203000000
O     2.850000000     0.207000000    -7.934000000
H     2.874000000    -0.009000000    -7.002000000
H     1.920000000     0.331000000    -8.127000000
O     5.210000000    -0.213000000     0.800000000
H     6.163000000    -0.305000000     0.804000000
H     4.957000000    -0.311000000     1.718000000
O    -2.146000000     1.820000000     6.216000000
H    -2.140000000     1.015000000     6.733000000
H    -1.226000000     1.975000000     6.003000000
O    -2.569000000    -1.799000000     4.200000000
H    -3.353000000    -1.757000000     3.653000000
H    -2.380000000    -0.886000000     4.418000000
O     1.120000000     4.876000000    -6.558000000
H     1.431000000     4.033000000    -6.228000000
H     0.866000000     4.699000000    -7.464000000
O     5.158000000    -0.303000000     3.363000000
H     5.860000000     0.291000000     3.630000000
H     4.545000000    -0.293000000     4.098000000
O    -0.105000000     0.034000000     5.337000000
H    -0.295000000    -0.132000000     6.261000000
H     0.335000000     0.884000000     5.332000000
