158
-3002.10251
C     1.238000000     0.434000000    -0.718000000
H     2.232000000     0.689000000    -1.077000000
C     1.160000000     0.014000000     0.587000000
H     2.093000000    -0.264000000     1.071000000
C    -0.082000000    -0.330000000     1.188000000
H    -0.070000000    -0.734000000     2.224000000
C    -1.222000000    -0.223000000     0.451000000
H    -2.211000000    -0.565000000     0.744000000
C    -1.149000000     0.302000000    -0.851000000
H    -2.027000000     0.501000000    -1.461000000
C     0.074000000     0.654000000    -1.414000000
C     0.133000000     1.073000000    -2.816000000
O     1.179000000     0.762000000    -3.429000000
O    -0.940000000     1.283000000    -3.369000000
O    -0.730000000    -3.938000000     5.185000000
H    -1.677000000    -3.918000000     5.049000000
H    -0.584000000    -4.703000000     5.741000000
O     3.705000000    -2.358000000     2.397000000
H     3.115000000    -2.756000000     1.756000000
H     3.279000000    -1.535000000     2.636000000
O    -3.358000000    -0.370000000    -6.464000000
H    -3.786000000    -1.226000000    -6.475000000
H    -2.529000000    -0.523000000    -6.011000000
O     1.006000000    -1.846000000    -6.511000000
H     1.636000000    -2.466000000    -6.144000000
H     0.430000000    -2.384000000    -7.054000000
O     1.213000000    -6.239000000     0.253000000
H     1.487000000    -5.550000000     0.858000000
H     1.671000000    -7.022000000     0.558000000
O    -5.534000000    -0.708000000    -2.847000000
H    -5.784000000    -1.492000000    -3.337000000
H    -4.963000000    -1.033000000    -2.151000000
O    -1.708000000    -2.989000000    -3.153000000
H    -1.864000000    -3.756000000    -3.704000000
H    -1.750000000    -2.248000000    -3.758000000
O    -3.854000000     5.594000000    -4.890000000
H    -3.254000000     4.994000000    -4.447000000
H    -3.679000000     6.446000000    -4.491000000
O     2.582000000    -1.541000000    -3.241000000
H     2.940000000    -1.648000000    -4.123000000
H     2.057000000    -0.743000000    -3.291000000
O     1.496000000     5.160000000    -3.493000000
H     1.446000000     4.244000000    -3.219000000
H     2.199000000     5.532000000    -2.961000000
O     5.014000000     0.573000000    -6.063000000
H     5.913000000     0.848000000    -5.882000000
H     4.708000000     0.198000000    -5.238000000
O    -3.983000000    -4.398000000     0.084000000
H    -3.029000000    -4.389000000     0.171000000
H    -4.190000000    -5.292000000    -0.189000000
O    -6.531000000    -1.859000000     1.531000000
H    -6.880000000    -1.287000000     2.215000000
H    -5.583000000    -1.737000000     1.579000000
O    -1.374000000    -1.192000000     6.151000000
H    -0.802000000    -0.476000000     5.872000000
H    -0.905000000    -1.986000000     5.898000000
O    -0.786000000     5.350000000    -5.196000000
H    -0.931000000     4.421000000    -5.375000000
H    -0.175000000     5.359000000    -4.459000000
O     6.350000000    -1.522000000     1.766000000
H     5.534000000    -1.753000000     2.210000000
H     6.107000000    -1.437000000     0.845000000
O    -5.446000000     1.485000000     1.174000000
H    -4.743000000     1.109000000     0.643000000
H    -6.074000000     1.822000000     0.536000000
O     3.060000000     3.671000000    -6.963000000
H     2.813000000     3.009000000    -6.318000000
H     2.585000000     4.457000000    -6.693000000
O     0.395000000    -7.424000000     3.256000000
H     0.690000000    -6.515000000     3.307000000
H    -0.181000000    -7.446000000     2.492000000
O    -1.260000000    -4.717000000     0.254000000
H    -1.359000000    -5.255000000    -0.532000000
H    -0.560000000    -5.142000000     0.749000000
O     6.861000000     3.156000000    -0.656000000
H     6.380000000     2.988000000    -1.466000000
H     7.421000000     2.388000000    -0.546000000
O     0.264000000     0.588000000     4.910000000
H     0.465000000     1.078000000     4.112000000
H     0.906000000     0.899000000     5.549000000
O     4.915000000     3.009000000    -2.863000000
H     5.037000000     2.098000000    -3.131000000
H     5.162000000     3.520000000    -3.633000000
O     0.377000000     0.644000000    -7.468000000
H    -0.130000000     0.299000000    -8.202000000
H     0.708000000    -0.133000000    -7.018000000
O     2.014000000     1.638000000    -5.827000000
H     1.553000000     1.531000000    -4.995000000
H     1.438000000     1.232000000    -6.475000000
O     5.420000000     0.567000000     3.305000000
H     6.257000000     0.249000000     2.968000000
H     5.132000000    -0.114000000     3.913000000
O    -3.578000000    -2.063000000    -1.512000000
H    -2.865000000    -2.331000000    -2.092000000
H    -3.631000000    -2.762000000    -0.860000000
O    -3.387000000     4.144000000     0.039000000
H    -3.005000000     4.902000000     0.479000000
H    -4.059000000     3.829000000     0.643000000
O     0.804000000    -3.266000000    -1.662000000
H     1.017000000    -2.515000000    -2.216000000
H    -0.123000000    -3.432000000    -1.828000000
O     2.553000000    -1.076000000     4.743000000
H     1.638000000    -1.338000000     4.851000000
H     3.054000000    -1.857000000     4.978000000
O     0.893000000    -4.727000000     3.028000000
H     0.928000000    -4.024000000     2.379000000
H     0.404000000    -4.353000000     3.760000000
O    -2.752000000    -0.245000000     3.686000000
H    -3.208000000    -1.047000000     3.431000000
H    -2.252000000    -0.490000000     4.464000000
O     4.042000000     1.759000000     1.277000000
H     3.465000000     2.456000000     1.588000000
H     4.520000000     1.477000000     2.057000000
O     5.753000000     0.347000000    -3.206000000
H     5.713000000     0.157000000    -2.269000000
H     5.543000000    -0.486000000    -3.628000000
O     2.538000000     3.141000000     5.241000000
H     1.963000000     3.209000000     6.002000000
H     1.948000000     3.197000000     4.489000000
O     1.499000000    -2.965000000     0.795000000
H     1.403000000    -2.020000000     0.917000000
H     1.090000000    -3.140000000    -0.052000000
O     3.282000000     4.671000000    -1.196000000
H     3.502000000     3.865000000    -1.664000000
H     3.999000000     4.791000000    -0.574000000
O    -2.537000000     2.412000000     3.578000000
H    -2.670000000     1.473000000     3.709000000
H    -2.050000000     2.474000000     2.757000000
O    -0.893000000     2.826000000    -5.574000000
H    -1.009000000     2.091000000    -4.973000000
H    -0.278000000     2.503000000    -6.232000000
O     4.078000000    -2.103000000    -0.976000000
H     4.288000000    -3.005000000    -1.217000000
H     3.541000000    -1.780000000    -1.701000000
O    -5.332000000     1.904000000    -3.022000000
H    -5.448000000     0.954000000    -3.013000000
H    -4.387000000     2.030000000    -3.098000000
O    -3.516000000     3.440000000    -6.775000000
H    -3.885000000     4.103000000    -6.191000000
H    -2.657000000     3.245000000    -6.402000000
O    -2.926000000     3.024000000    -3.177000000
H    -2.191000000     2.437000000    -3.353000000
H    -2.832000000     3.254000000    -2.252000000
O     5.363000000     0.181000000    -0.478000000
H     4.867000000     0.797000000     0.062000000
H     4.781000000    -0.573000000    -0.576000000
O    -5.047000000    -2.658000000     6.121000000
H    -4.703000000    -3.215000000     6.819000000
H    -4.601000000    -2.960000000     5.330000000
O    -3.478000000    -2.648000000     2.705000000
H    -3.196000000    -2.998000000     1.860000000
H    -3.273000000    -3.342000000     3.332000000
O     1.144000000     2.501000000     2.600000000
H     0.972000000     3.440000000     2.676000000
H     0.787000000     2.262000000     1.745000000
O    -1.126000000    -0.699000000    -5.060000000
H    -1.135000000     0.026000000    -4.435000000
H    -0.199000000    -0.906000000    -5.174000000
