158
-3032.77862
C     1.195000000    -0.325000000    -0.796000000
H     2.191000000    -0.493000000    -1.198000000
C     1.164000000     0.144000000     0.515000000
H     2.158000000     0.330000000     0.914000000
C    -0.025000000     0.382000000     1.145000000
H    -0.077000000     0.840000000     2.098000000
C    -1.226000000     0.218000000     0.519000000
H    -2.129000000     0.420000000     1.089000000
C    -1.273000000    -0.383000000    -0.776000000
H    -2.241000000    -0.551000000    -1.242000000
C    -0.034000000    -0.628000000    -1.442000000
C     0.060000000    -1.126000000    -2.861000000
O     1.174000000    -1.363000000    -3.346000000
O    -0.923000000    -1.013000000    -3.597000000
O    -2.915000000     1.254000000     5.432000000
H    -2.851000000     1.490000000     4.506000000
H    -3.800000000     1.516000000     5.685000000
O     1.722000000    -2.066000000     2.826000000
H     2.058000000    -2.453000000     2.017000000
H     0.800000000    -2.322000000     2.849000000
O    -0.167000000    -2.077000000    -7.460000000
H    -0.392000000    -1.650000000    -8.286000000
H     0.188000000    -2.927000000    -7.719000000
O    -5.454000000     1.931000000    -2.867000000
H    -4.875000000     1.887000000    -2.106000000
H    -5.532000000     2.866000000    -3.055000000
O    -5.186000000    -0.981000000     1.618000000
H    -5.654000000    -1.300000000     2.389000000
H    -5.126000000    -0.035000000     1.748000000
O     2.465000000     3.553000000    -3.185000000
H     2.488000000     4.446000000    -3.528000000
H     2.470000000     3.661000000    -2.234000000
O     3.186000000    -3.176000000     0.581000000
H     2.407000000    -3.714000000     0.437000000
H     3.812000000    -3.481000000    -0.076000000
O    -2.670000000    -2.911000000    -2.472000000
H    -3.455000000    -2.534000000    -2.868000000
H    -1.956000000    -2.350000000    -2.774000000
O     4.879000000    -1.390000000    -3.964000000
H     4.429000000    -0.549000000    -3.886000000
H     4.174000000    -2.037000000    -3.988000000
O     2.842000000    -3.142000000    -3.933000000
H     2.228000000    -2.509000000    -3.559000000
H     2.803000000    -2.984000000    -4.876000000
O    -0.759000000    -3.991000000     4.572000000
H    -1.279000000    -4.257000000     5.331000000
H    -0.783000000    -3.034000000     4.588000000
O    -2.705000000    -4.119000000    -0.007000000
H    -3.601000000    -3.907000000     0.255000000
H    -2.567000000    -3.621000000    -0.813000000
O    -1.364000000     2.453000000    -3.368000000
H    -0.697000000     2.676000000    -2.718000000
H    -1.129000000     1.572000000    -3.659000000
O    -4.126000000     1.931000000     1.823000000
H    -4.010000000     2.136000000     0.895000000
H    -3.271000000     2.106000000     2.216000000
O    -4.006000000    -0.747000000    -7.425000000
H    -3.738000000    -0.537000000    -6.530000000
H    -3.207000000    -1.068000000    -7.845000000
O     5.578000000     1.765000000    -4.147000000
H     5.991000000     2.328000000    -3.492000000
H     4.708000000     1.584000000    -3.792000000
O     4.753000000     1.642000000     5.213000000
H     5.585000000     1.634000000     4.740000000
H     4.211000000     0.999000000     4.754000000
O    -1.643000000    -0.652000000     7.299000000
H    -1.729000000    -0.021000000     6.585000000
H    -1.915000000    -0.170000000     8.080000000
O     2.820000000    -2.415000000    -6.808000000
H     2.594000000    -1.494000000    -6.676000000
H     2.199000000    -2.720000000    -7.470000000
O    -1.244000000    -1.302000000     4.427000000
H    -1.827000000    -0.793000000     4.990000000
H    -0.644000000    -0.655000000     4.056000000
O    -0.557000000    -2.932000000     1.388000000
H    -1.278000000    -3.437000000     1.014000000
H    -0.791000000    -2.019000000     1.221000000
O     0.966000000     4.149000000     1.946000000
H     1.392000000     4.976000000     1.721000000
H     1.647000000     3.642000000     2.389000000
O     0.678000000    -5.719000000    -2.453000000
H     0.895000000    -5.903000000    -1.540000000
H     1.173000000    -4.927000000    -2.662000000
O    -2.926000000     0.016000000    -4.814000000
H    -2.173000000    -0.426000000    -4.423000000
H    -3.398000000     0.390000000    -4.069000000
O     4.933000000    -5.020000000    -3.060000000
H     5.527000000    -4.948000000    -3.807000000
H     4.259000000    -4.360000000    -3.226000000
O     0.793000000    -4.916000000     0.356000000
H     0.799000000    -5.415000000     1.173000000
H     0.327000000    -4.108000000     0.573000000
O     2.325000000    -2.994000000     5.444000000
H     3.246000000    -2.736000000     5.464000000
H     2.105000000    -3.028000000     4.513000000
O     2.910000000     4.168000000    -0.593000000
H     2.349000000     4.584000000     0.062000000
H     3.540000000     3.661000000    -0.081000000
O     4.261000000     2.385000000     0.807000000
H     4.283000000     1.431000000     0.876000000
H     5.091000000     2.614000000     0.388000000
O     2.830000000     0.059000000     3.894000000
H     2.189000000     0.108000000     4.603000000
H     2.632000000    -0.765000000     3.448000000
O     5.966000000     0.288000000     3.034000000
H     6.363000000     1.101000000     2.722000000
H     5.348000000     0.043000000     2.345000000
O    -2.339000000     5.554000000     1.307000000
H    -1.948000000     6.195000000     0.714000000
H    -2.883000000     6.075000000     1.898000000
O    -0.024000000     2.771000000    -0.796000000
H     0.514000000     3.295000000    -0.203000000
H     0.148000000     1.865000000    -0.539000000
O     1.288000000    -0.261000000    -5.940000000
H     0.656000000    -0.716000000    -6.496000000
H     1.087000000    -0.561000000    -5.054000000
O     3.157000000     3.122000000     3.447000000
H     3.088000000     2.292000000     3.918000000
H     3.645000000     2.907000000     2.652000000
O    -1.842000000     3.254000000     2.927000000
H    -1.692000000     4.009000000     2.357000000
H    -1.085000000     3.242000000     3.512000000
O    -0.456000000     2.555000000     5.579000000
H    -0.517000000     3.469000000     5.859000000
H    -1.364000000     2.252000000     5.554000000
O    -3.233000000     2.731000000    -0.593000000
H    -3.142000000     3.666000000    -0.409000000
H    -2.334000000     2.407000000    -0.643000000
O    -3.771000000     2.798000000    -4.970000000
H    -3.026000000     2.648000000    -4.388000000
H    -3.656000000     2.162000000    -5.676000000
O     3.104000000     1.018000000    -3.893000000
H     2.695000000     1.879000000    -3.809000000
H     2.395000000     0.442000000    -4.178000000
O    -0.853000000     2.328000000    -7.453000000
H    -0.571000000     3.112000000    -6.983000000
H    -0.443000000     1.604000000    -6.979000000
O    -5.835000000     4.122000000     1.528000000
H    -5.279000000     4.881000000     1.355000000
H    -5.223000000     3.430000000     1.780000000
O    -1.184000000    -4.282000000    -5.379000000
H    -1.907000000    -4.406000000    -4.763000000
H    -1.164000000    -3.338000000    -5.536000000
O     6.448000000     0.158000000    -1.251000000
H     6.767000000    -0.027000000    -2.135000000
H     6.324000000     1.107000000    -1.235000000
O     0.928000000     0.291000000     5.789000000
H     0.836000000    -0.042000000     6.681000000
H     0.530000000     1.162000000     5.816000000
O    -3.416000000    -4.210000000     4.055000000
H    -3.093000000    -3.366000000     3.741000000
H    -2.772000000    -4.845000000     3.740000000
O     4.609000000    -0.703000000     0.756000000
H     4.177000000    -1.545000000     0.618000000
H     5.241000000    -0.637000000     0.040000000
O    -5.024000000    -1.061000000    -1.186000000
H    -5.098000000    -1.073000000    -0.231000000
H    -5.688000000    -0.433000000    -1.469000000
