158
-3029.35808
C     0.815000000     0.226000000    -1.231000000
H     1.371000000     0.616000000    -2.079000000
C     0.797000000     0.958000000    -0.062000000
H     1.344000000     1.896000000    -0.023000000
C     0.011000000     0.653000000     1.039000000
H    -0.146000000     1.240000000     1.941000000
C    -0.763000000    -0.449000000     0.924000000
H    -1.341000000    -0.720000000     1.804000000
C    -0.799000000    -1.247000000    -0.249000000
H    -1.334000000    -2.192000000    -0.197000000
C    -0.016000000    -0.899000000    -1.324000000
C    -0.055000000    -1.772000000    -2.526000000
O     0.558000000    -1.414000000    -3.537000000
O    -0.734000000    -2.730000000    -2.507000000
O    -3.271000000     1.815000000     4.757000000
H    -2.893000000     2.610000000     4.380000000
H    -3.320000000     1.995000000     5.696000000
O     0.970000000     7.498000000     0.244000000
H     0.712000000     6.644000000     0.590000000
H     0.422000000     8.123000000     0.719000000
O     3.114000000    -1.611000000     3.212000000
H     2.532000000    -2.356000000     3.361000000
H     3.094000000    -1.123000000     4.036000000
O    -3.329000000    -3.735000000     0.758000000
H    -3.117000000    -3.357000000     1.612000000
H    -2.493000000    -4.060000000     0.425000000
O     3.570000000    -5.058000000    -2.299000000
H     2.998000000    -4.818000000    -3.028000000
H     3.030000000    -4.929000000    -1.519000000
O    -3.949000000    -5.714000000    -3.545000000
H    -3.447000000    -4.989000000    -3.172000000
H    -4.074000000    -6.319000000    -2.815000000
O    -1.397000000    -4.481000000    -4.562000000
H    -1.251000000    -3.985000000    -5.368000000
H    -1.285000000    -3.839000000    -3.862000000
O     4.069000000    -3.933000000    -5.615000000
H     4.952000000    -3.569000000    -5.545000000
H     3.552000000    -3.429000000    -4.986000000
O     3.000000000    -1.560000000    -4.498000000
H     2.085000000    -1.506000000    -4.221000000
H     3.042000000    -1.026000000    -5.292000000
O     0.357000000    -0.961000000     6.859000000
H    -0.412000000    -0.998000000     6.291000000
H     0.044000000    -0.546000000     7.662000000
O    -3.906000000    -6.305000000    -0.843000000
H    -3.187000000    -5.843000000    -0.413000000
H    -4.692000000    -5.833000000    -0.569000000
O    -5.516000000    -3.426000000    -2.282000000
H    -4.833000000    -2.867000000    -2.652000000
H    -5.044000000    -4.043000000    -1.722000000
O    -3.233000000    -2.155000000    -2.966000000
H    -3.097000000    -1.360000000    -3.481000000
H    -2.352000000    -2.429000000    -2.710000000
O     0.966000000     2.127000000     4.526000000
H     1.335000000     2.718000000     3.869000000
H     0.401000000     2.685000000     5.060000000
O    -5.669000000    -2.531000000     2.660000000
H    -5.680000000    -1.720000000     3.169000000
H    -4.852000000    -2.961000000     2.913000000
O     2.469000000     2.920000000    -4.940000000
H     3.039000000     2.715000000    -5.681000000
H     1.823000000     2.214000000    -4.932000000
O    -5.012000000    -0.052000000    -0.335000000
H    -4.737000000    -0.969000000    -0.299000000
H    -4.400000000     0.357000000    -0.946000000
O    -0.681000000     7.525000000     2.692000000
H    -1.343000000     8.215000000     2.631000000
H    -1.024000000     6.816000000     2.148000000
O    -0.611000000    -2.255000000    -5.824000000
H    -1.186000000    -1.517000000    -6.024000000
H    -0.108000000    -1.967000000    -5.062000000
O     1.879000000    -4.739000000     0.274000000
H     1.822000000    -5.500000000     0.852000000
H     1.188000000    -4.153000000     0.583000000
O     5.536000000     3.232000000     2.689000000
H     6.163000000     3.827000000     2.279000000
H     5.105000000     2.795000000     1.954000000
O     1.607000000    -4.049000000    -3.817000000
H     0.998000000    -3.544000000    -3.277000000
H     1.052000000    -4.470000000    -4.473000000
O     3.400000000    -2.343000000     0.398000000
H     3.177000000    -2.172000000     1.313000000
H     2.888000000    -3.119000000     0.168000000
O     3.539000000     3.930000000     4.538000000
H     3.263000000     4.779000000     4.193000000
H     4.146000000     3.591000000     3.880000000
O     2.685000000     0.093000000     5.373000000
H     2.133000000     0.786000000     5.013000000
H     2.166000000    -0.281000000     6.085000000
O     5.624000000     1.193000000    -2.820000000
H     6.540000000     0.920000000    -2.883000000
H     5.184000000     0.458000000    -2.393000000
O     5.376000000     0.850000000     4.101000000
H     4.520000000     0.841000000     4.529000000
H     5.378000000     1.657000000     3.586000000
O    -2.012000000    -0.770000000     5.235000000
H    -1.846000000     0.144000000     5.004000000
H    -2.342000000    -0.733000000     6.133000000
O     5.134000000     1.315000000    -5.637000000
H     4.538000000     0.636000000    -5.954000000
H     5.119000000     1.220000000    -4.684000000
O    -5.074000000    -0.278000000     3.987000000
H    -5.203000000    -0.617000000     4.873000000
H    -4.275000000     0.246000000     4.046000000
O     0.496000000     0.798000000    -5.116000000
H     0.078000000     0.573000000    -5.947000000
H     0.657000000    -0.045000000    -4.693000000
O    -0.587000000    -3.951000000     2.294000000
H    -0.471000000    -4.555000000     3.028000000
H    -1.375000000    -3.455000000     2.515000000
O     0.453000000     3.850000000    -2.376000000
H     1.298000000     3.433000000    -2.210000000
H     0.210000000     4.242000000    -1.538000000
O     5.387000000     2.323000000     0.041000000
H     5.789000000     1.492000000     0.292000000
H     4.959000000     2.140000000    -0.796000000
O    -2.461000000     1.131000000    -1.474000000
H    -2.115000000     1.329000000    -2.344000000
H    -1.717000000     0.758000000    -1.000000000
O     3.243000000    -0.252000000    -6.817000000
H     3.525000000    -1.022000000    -7.310000000
H     2.794000000     0.295000000    -7.462000000
O     3.157000000     2.729000000    -1.729000000
H     3.378000000     2.419000000    -2.607000000
H     3.791000000     3.424000000    -1.553000000
O    -1.311000000     2.369000000    -3.934000000
H    -0.615000000     1.874000000    -4.366000000
H    -0.849000000     2.982000000    -3.362000000
O    -2.989000000     3.709000000    -0.726000000
H    -2.829000000     2.776000000    -0.868000000
H    -3.441000000     3.749000000     0.117000000
O    -4.780000000     2.401000000     1.387000000
H    -4.979000000     1.522000000     1.064000000
H    -4.465000000     2.262000000     2.280000000
O    -1.384000000    -4.868000000    -0.798000000
H    -0.709000000    -5.533000000    -0.666000000
H    -0.921000000    -4.134000000    -1.204000000
O    -1.468000000     4.073000000     4.852000000
H    -0.875000000     4.097000000     5.603000000
H    -1.773000000     4.975000000     4.759000000
O    -3.108000000    -0.044000000    -4.752000000
H    -4.058000000     0.061000000    -4.790000000
H    -2.775000000     0.533000000    -5.439000000
O    -1.583000000     5.830000000     0.609000000
H    -2.481000000     5.725000000     0.922000000
H    -1.631000000     5.639000000    -0.328000000
O    -3.175000000    -2.746000000     3.704000000
H    -3.326000000    -3.375000000     4.410000000
H    -2.886000000    -1.950000000     4.151000000
O    -1.773000000    -7.213000000    -5.412000000
H    -1.460000000    -6.352000000    -5.135000000
H    -2.715000000    -7.192000000    -5.241000000
O     4.359000000    -1.200000000    -2.107000000
H     3.900000000    -1.544000000    -2.873000000
H     3.900000000    -1.585000000    -1.360000000
O    -5.776000000    -4.716000000     0.163000000
H    -5.051000000    -4.296000000     0.624000000
H    -6.562000000    -4.373000000     0.587000000
