158
-3019.20850
C    -0.509000000     0.143000000    -1.360000000
H    -0.976000000     0.268000000    -2.334000000
C    -0.616000000     1.145000000    -0.380000000
H    -1.070000000     2.110000000    -0.590000000
C    -0.107000000     0.915000000     0.856000000
H    -0.110000000     1.631000000     1.702000000
C     0.486000000    -0.333000000     1.145000000
H     0.949000000    -0.485000000     2.116000000
C     0.608000000    -1.370000000     0.165000000
H     1.084000000    -2.329000000     0.354000000
C     0.100000000    -1.141000000    -1.103000000
C     0.162000000    -2.180000000    -2.237000000
O    -0.322000000    -1.860000000    -3.321000000
O     0.721000000    -3.258000000    -2.060000000
O    -0.032000000    -2.391000000    -7.254000000
H    -0.671000000    -2.995000000    -7.633000000
H    -0.423000000    -1.525000000    -7.369000000
O    -2.715000000    -4.870000000    -0.632000000
H    -1.838000000    -5.070000000    -0.959000000
H    -2.798000000    -3.922000000    -0.736000000
O     0.533000000     7.348000000     0.051000000
H    -0.063000000     7.923000000     0.532000000
H     0.770000000     6.668000000     0.682000000
O     3.559000000     0.067000000    -3.635000000
H     2.920000000    -0.625000000    -3.806000000
H     3.422000000     0.298000000    -2.716000000
O     4.187000000     3.237000000    -0.177000000
H     4.790000000     3.571000000    -0.842000000
H     3.408000000     2.978000000    -0.668000000
O     3.214000000     6.362000000    -0.720000000
H     3.028000000     5.519000000    -0.306000000
H     2.511000000     6.938000000    -0.417000000
O    -2.569000000    -5.288000000     2.383000000
H    -2.238000000    -6.166000000     2.572000000
H    -1.939000000    -4.924000000     1.762000000
O     2.780000000    -4.652000000    -0.584000000
H     2.146000000    -4.145000000    -1.091000000
H     3.077000000    -4.050000000     0.098000000
O    -3.767000000     1.963000000     5.433000000
H    -3.361000000     2.829000000     5.411000000
H    -3.713000000     1.696000000     6.351000000
O     4.490000000    -2.740000000     3.830000000
H     4.628000000    -1.869000000     4.204000000
H     5.152000000    -3.289000000     4.251000000
O    -1.192000000     4.599000000     2.954000000
H    -1.323000000     4.081000000     3.748000000
H    -1.874000000     5.270000000     2.989000000
O    -3.347000000    -1.004000000     1.814000000
H    -2.902000000    -0.838000000     2.645000000
H    -4.229000000    -1.278000000     2.064000000
O    -3.145000000    -2.241000000    -0.557000000
H    -2.254000000    -1.893000000    -0.531000000
H    -3.565000000    -1.883000000     0.225000000
O     0.077000000    -7.120000000    -0.196000000
H     0.092000000    -6.542000000    -0.959000000
H    -0.715000000    -7.645000000    -0.308000000
O    -3.870000000    -4.056000000    -5.514000000
H    -4.245000000    -3.179000000    -5.592000000
H    -2.948000000    -3.905000000    -5.306000000
O     4.205000000    -2.802000000     1.209000000
H     4.892000000    -2.178000000     0.973000000
H     4.134000000    -2.730000000     2.161000000
O    -1.356000000    -3.759000000    -4.880000000
H    -0.723000000    -4.053000000    -5.535000000
H    -0.911000000    -3.050000000    -4.417000000
O    -3.007000000     5.529000000    -2.060000000
H    -2.397000000     4.898000000    -2.442000000
H    -3.025000000     5.311000000    -1.128000000
O     2.133000000    -0.627000000     5.146000000
H     1.288000000    -0.208000000     5.307000000
H     2.409000000    -0.949000000     6.004000000
O     5.025000000    -2.440000000    -2.072000000
H     4.401000000    -1.714000000    -2.108000000
H     5.292000000    -2.571000000    -2.981000000
O    -0.638000000    -5.526000000    -2.521000000
H    -1.160000000    -5.547000000    -3.323000000
H    -0.271000000    -4.642000000    -2.496000000
O     3.242000000    -7.451000000    -0.315000000
H     2.312000000    -7.631000000    -0.179000000
H     3.280000000    -6.513000000    -0.502000000
O     4.692000000     0.107000000     4.342000000
H     3.778000000     0.265000000     4.105000000
H     5.188000000     0.731000000     3.812000000
O     1.204000000     4.544000000     1.132000000
H     0.322000000     4.503000000     1.500000000
H     1.748000000     4.872000000     1.848000000
O     1.615000000    -1.391000000    -4.924000000
H     1.615000000    -2.141000000    -5.519000000
H     0.985000000    -1.625000000    -4.243000000
O     1.627000000     2.768000000     4.994000000
H     1.548000000     3.713000000     4.863000000
H     2.243000000     2.678000000     5.721000000
O    -0.321000000     0.578000000     5.633000000
H     0.283000000     1.234000000     5.286000000
H    -1.121000000     0.692000000     5.120000000
O     3.684000000     2.656000000     2.784000000
H     3.467000000     1.938000000     2.189000000
H     2.837000000     3.024000000     3.034000000
O    -5.193000000     5.053000000     0.077000000
H    -5.902000000     4.488000000     0.384000000
H    -4.435000000     4.472000000     0.011000000
O    -5.067000000     1.546000000    -2.054000000
H    -5.065000000     1.761000000    -2.987000000
H    -5.761000000     0.893000000    -1.961000000
O     0.554000000     2.068000000    -5.540000000
H    -0.123000000     1.393000000    -5.502000000
H     1.362000000     1.588000000    -5.718000000
O     2.363000000     5.668000000     3.231000000
H     3.284000000     5.599000000     3.482000000
H     2.240000000     6.593000000     3.020000000
O    -1.238000000     3.889000000    -4.143000000
H    -0.342000000     4.224000000    -4.118000000
H    -1.147000000     2.987000000    -4.451000000
O     2.975000000    -4.990000000     2.665000000
H     2.445000000    -4.232000000     2.912000000
H     3.831000000    -4.622000000     2.447000000
O    -1.183000000    -3.088000000     4.199000000
H    -1.570000000    -2.327000000     4.633000000
H    -1.873000000    -3.408000000     3.617000000
O     4.926000000     0.387000000     1.103000000
H     5.037000000     1.121000000     0.498000000
H     5.814000000     0.058000000     1.245000000
O    -5.265000000    -2.022000000    -2.404000000
H    -4.545000000    -2.115000000    -1.781000000
H    -4.855000000    -1.670000000    -3.194000000
O    -1.510000000     0.255000000    -4.670000000
H    -2.300000000    -0.072000000    -4.239000000
H    -0.873000000    -0.453000000    -4.570000000
O    -3.556000000     1.329000000     0.112000000
H    -4.026000000     1.339000000    -0.722000000
H    -3.004000000     0.548000000     0.066000000
O    -0.043000000    -4.512000000     1.317000000
H     0.580000000    -4.066000000     1.890000000
H     0.498000000    -4.891000000     0.624000000
O     1.541000000    -7.129000000    -4.065000000
H     0.589000000    -7.217000000    -4.036000000
H     1.862000000    -8.024000000    -4.173000000
O    -2.686000000    -0.436000000     4.358000000
H    -3.252000000    -1.095000000     4.760000000
H    -2.955000000     0.390000000     4.762000000
O    -2.873000000     3.841000000     0.591000000
H    -2.528000000     3.995000000     1.470000000
H    -2.903000000     2.888000000     0.509000000
O    -1.760000000    -0.113000000    -7.677000000
H    -2.518000000     0.063000000    -8.235000000
H    -2.091000000    -0.010000000    -6.784000000
O     2.954000000    -4.723000000    -3.732000000
H     2.332000000    -5.442000000    -3.843000000
H     2.800000000    -4.407000000    -2.842000000
O     1.592000000     3.218000000    -1.827000000
H     1.130000000     3.143000000    -0.992000000
H     1.262000000     2.488000000    -2.350000000
O     1.302000000    -2.902000000     3.259000000
H     0.444000000    -2.993000000     3.673000000
H     1.749000000    -2.235000000     3.779000000
O     2.919000000     0.409000000    -0.932000000
H     3.635000000     0.110000000    -0.371000000
H     2.125000000     0.139000000    -0.471000000
