158
-3013.06259
C     0.823000000     0.914000000    -0.891000000
H     1.388000000     1.695000000    -1.394000000
C     0.542000000     1.106000000     0.443000000
H     0.829000000     2.067000000     0.864000000
C    -0.154000000     0.136000000     1.232000000
H    -0.296000000     0.327000000     2.321000000
C    -0.456000000    -1.088000000     0.601000000
H    -1.035000000    -1.778000000     1.210000000
C    -0.264000000    -1.225000000    -0.761000000
H    -0.681000000    -2.117000000    -1.220000000
C     0.350000000    -0.260000000    -1.554000000
C     0.293000000    -0.432000000    -3.023000000
O     0.311000000     0.553000000    -3.778000000
O     0.355000000    -1.510000000    -3.607000000
O    -3.467000000    -1.682000000    -3.670000000
H    -2.986000000    -2.484000000    -3.462000000
H    -2.820000000    -1.119000000    -4.095000000
O     1.199000000     5.276000000    -2.583000000
H     0.426000000     4.766000000    -2.824000000
H     1.794000000     4.638000000    -2.190000000
O    -0.561000000    -6.612000000    -4.140000000
H    -0.396000000    -5.670000000    -4.174000000
H     0.310000000    -7.008000000    -4.178000000
O     3.065000000    -1.384000000    -3.904000000
H     2.141000000    -1.487000000    -4.130000000
H     3.176000000    -0.442000000    -3.772000000
O     1.508000000     1.729000000    -5.900000000
H     2.056000000     2.489000000    -5.704000000
H     1.089000000     1.515000000    -5.067000000
O    -1.765000000    -0.388000000    -8.151000000
H    -1.623000000    -0.064000000    -7.261000000
H    -2.423000000    -1.076000000    -8.053000000
O    -4.487000000    -1.066000000    -1.086000000
H    -3.899000000    -0.485000000    -0.604000000
H    -4.060000000    -1.190000000    -1.934000000
O     0.384000000    -4.085000000    -3.158000000
H     0.119000000    -3.166000000    -3.202000000
H     1.181000000    -4.080000000    -2.628000000
O    -4.680000000    -3.169000000     0.687000000
H    -4.630000000    -2.487000000     0.017000000
H    -4.963000000    -2.709000000     1.477000000
O    -3.973000000    -5.670000000    -0.457000000
H    -3.300000000    -6.113000000     0.060000000
H    -4.136000000    -4.852000000     0.012000000
O    -5.011000000    -1.577000000     3.011000000
H    -4.133000000    -1.490000000     3.380000000
H    -5.437000000    -2.237000000     3.558000000
O    -0.298000000     6.910000000    -0.934000000
H     0.186000000     7.678000000    -1.239000000
H     0.193000000     6.165000000    -1.282000000
O    -1.538000000     0.498000000    -5.657000000
H    -0.774000000     0.546000000    -5.082000000
H    -2.062000000     1.264000000    -5.425000000
O    -2.425000000    -3.976000000    -2.385000000
H    -2.349000000    -4.107000000    -1.440000000
H    -1.566000000    -4.216000000    -2.730000000
O     0.105000000    -2.599000000    -8.823000000
H    -0.420000000    -1.817000000    -8.995000000
H     0.746000000    -2.319000000    -8.170000000
O     3.043000000    -2.847000000    -7.466000000
H     3.567000000    -2.336000000    -6.850000000
H     2.317000000    -3.184000000    -6.941000000
O     2.726000000     4.086000000    -4.939000000
H     2.134000000     4.336000000    -4.230000000
H     3.172000000     4.899000000    -5.177000000
O    -0.886000000    -2.485000000    -5.614000000
H    -0.163000000    -2.959000000    -6.025000000
H    -0.480000000    -2.012000000    -4.887000000
O    -2.545000000     3.507000000    -5.049000000
H    -3.252000000     4.129000000    -4.879000000
H    -1.903000000     3.680000000    -4.360000000
O    -2.279000000    -2.688000000     7.469000000
H    -1.417000000    -3.098000000     7.531000000
H    -2.106000000    -1.818000000     7.109000000
O    -2.358000000    -3.480000000     3.108000000
H    -2.346000000    -2.630000000     3.548000000
H    -2.799000000    -4.063000000     3.725000000
O    -2.398000000    -4.524000000    -6.111000000
H    -2.390000000    -3.826000000    -5.456000000
H    -2.642000000    -5.309000000    -5.621000000
O     2.099000000    -4.058000000    -0.926000000
H     3.025000000    -3.878000000    -0.765000000
H     1.665000000    -3.834000000    -0.103000000
O     0.103000000     2.245000000     4.509000000
H     0.007000000     1.519000000     5.124000000
H     0.003000000     3.030000000     5.047000000
O     4.905000000     4.005000000     3.616000000
H     5.059000000     3.238000000     4.168000000
H     4.001000000     3.907000000     3.317000000
O    -1.136000000    -0.127000000     6.415000000
H    -1.241000000     0.412000000     7.199000000
H    -0.193000000    -0.281000000     6.355000000
O     5.292000000     0.744000000    -2.740000000
H     5.758000000     1.315000000    -2.129000000
H     5.641000000     0.978000000    -3.600000000
O    -2.627000000     2.021000000     3.145000000
H    -2.739000000     2.944000000     2.916000000
H    -1.872000000     2.010000000     3.733000000
O     2.319000000     3.183000000     2.970000000
H     2.093000000     3.616000000     2.146000000
H     1.499000000     2.785000000     3.263000000
O     2.698000000    -0.238000000     3.875000000
H     2.286000000    -0.154000000     4.735000000
H     2.585000000     0.622000000     3.471000000
O     1.421000000     4.599000000     0.907000000
H     0.489000000     4.795000000     0.811000000
H     1.865000000     5.350000000     0.512000000
O    -5.635000000     2.028000000     3.487000000
H    -5.590000000     1.341000000     4.152000000
H    -4.803000000     2.495000000     3.569000000
O     0.723000000    -4.339000000     1.865000000
H     0.750000000    -5.260000000     2.123000000
H     0.401000000    -3.882000000     2.642000000
O     4.614000000    -0.445000000     1.837000000
H     3.874000000    -0.852000000     2.286000000
H     4.227000000    -0.023000000     1.070000000
O    -4.492000000     1.088000000    -4.364000000
H    -3.951000000     1.286000000    -3.600000000
H    -5.391000000     1.132000000    -4.038000000
O     1.045000000    -0.670000000    -7.156000000
H     1.315000000     0.053000000    -6.589000000
H     0.259000000    -1.021000000    -6.738000000
O    -0.140000000     2.045000000    -8.102000000
H    -0.781000000     1.335000000    -8.066000000
H     0.519000000     1.806000000    -7.449000000
O    -0.663000000     3.129000000    -2.918000000
H    -1.390000000     2.928000000    -2.330000000
H    -0.427000000     2.285000000    -3.304000000
O    -3.067000000     0.839000000     0.486000000
H    -2.118000000     0.774000000     0.594000000
H    -3.397000000     1.010000000     1.368000000
O     1.131000000    -4.479000000    -6.422000000
H     0.503000000    -4.892000000    -7.014000000
H     1.223000000    -5.101000000    -5.700000000
O    -3.091000000     1.913000000    -2.077000000
H    -3.983000000     2.258000000    -2.035000000
H    -3.005000000     1.375000000    -1.290000000
O     5.336000000    -2.666000000    -3.735000000
H     5.234000000    -2.605000000    -2.785000000
H     4.554000000    -2.240000000    -4.087000000
O     2.876000000    -3.682000000     4.372000000
H     3.318000000    -3.391000000     3.574000000
H     2.776000000    -2.886000000     4.893000000
O    -2.646000000    -0.844000000     4.212000000
H    -2.569000000    -0.015000000     3.739000000
H    -2.401000000    -0.629000000     5.112000000
O     1.660000000    -0.541000000     6.564000000
H     1.928000000    -1.373000000     6.954000000
H     2.091000000     0.125000000     7.100000000
O    -2.112000000     4.744000000     3.236000000
H    -2.299000000     5.330000000     2.502000000
H    -1.173000000     4.845000000     3.390000000
O     5.722000000    -1.402000000    -1.038000000
H     6.538000000    -1.082000000    -0.654000000
H     5.444000000    -0.702000000    -1.628000000
O    -1.692000000    -4.253000000     0.231000000
H    -0.808000000    -4.129000000     0.578000000
H    -2.261000000    -3.820000000     0.866000000
