158
-2999.72314
C    -0.372000000    -0.302000000     1.360000000
H    -0.858000000    -0.624000000     2.277000000
C    -1.224000000     0.287000000     0.365000000
H    -2.279000000     0.475000000     0.544000000
C    -0.662000000     0.586000000    -0.844000000
H    -1.389000000     1.041000000    -1.601000000
C     0.677000000     0.351000000    -1.110000000
H     1.075000000     0.390000000    -2.121000000
C     1.454000000    -0.262000000    -0.101000000
H     2.463000000    -0.567000000    -0.368000000
C     1.003000000    -0.514000000     1.176000000
C     1.817000000    -1.214000000     2.147000000
O     3.017000000    -1.227000000     2.005000000
O     1.314000000    -1.451000000     3.206000000
O    -3.703000000     4.190000000     0.370000000
H    -3.923000000     3.478000000     0.971000000
H    -3.657000000     4.967000000     0.926000000
O     1.081000000    -5.873000000     2.289000000
H     0.263000000    -6.273000000     1.992000000
H     0.820000000    -5.014000000     2.621000000
O     4.612000000     0.581000000     0.822000000
H     4.095000000    -0.017000000     1.363000000
H     5.067000000     0.011000000     0.202000000
O     0.724000000    -1.146000000    -4.522000000
H     1.530000000    -0.740000000    -4.840000000
H     0.169000000    -0.409000000    -4.266000000
O     3.507000000     2.137000000     3.556000000
H     2.623000000     1.849000000     3.781000000
H     3.398000000     2.638000000     2.748000000
O     3.176000000    -0.620000000    -5.778000000
H     3.607000000    -1.166000000    -5.121000000
H     3.611000000     0.229000000    -5.707000000
O    -4.846000000    -3.554000000     1.475000000
H    -5.544000000    -3.771000000     2.093000000
H    -5.019000000    -2.645000000     1.228000000
O    -0.045000000    -3.561000000     3.050000000
H     0.532000000    -2.800000000     3.118000000
H    -0.701000000    -3.307000000     2.401000000
O     0.793000000     3.974000000    -1.779000000
H     0.460000000     4.107000000    -0.892000000
H     1.744000000     3.953000000    -1.677000000
O     1.447000000     0.941000000     4.701000000
H     1.416000000     0.116000000     4.217000000
H     0.642000000     0.944000000     5.220000000
O    -1.557000000     3.560000000     4.070000000
H    -1.259000000     4.252000000     4.661000000
H    -1.139000000     2.766000000     4.403000000
O    -0.968000000    -3.436000000    -4.182000000
H    -1.193000000    -3.552000000    -3.259000000
H    -0.296000000    -2.754000000    -4.181000000
O     4.375000000    -4.765000000    -2.018000000
H     3.422000000    -4.674000000    -2.038000000
H     4.655000000    -4.185000000    -1.310000000
O    -2.489000000    -0.988000000    -7.584000000
H    -3.379000000    -0.935000000    -7.236000000
H    -1.935000000    -0.653000000    -6.879000000
O     3.983000000    -2.219000000    -3.550000000
H     4.455000000    -1.565000000    -3.034000000
H     3.468000000    -2.705000000    -2.907000000
O     1.910000000    -3.650000000    -1.999000000
H     1.357000000    -3.157000000    -1.392000000
H     1.402000000    -4.435000000    -2.201000000
O     2.520000000    -2.593000000     5.271000000
H     3.388000000    -2.748000000     4.897000000
H     1.982000000    -2.329000000     4.525000000
O     1.149000000    -1.085000000     7.303000000
H     0.270000000    -0.960000000     6.945000000
H     1.608000000    -1.600000000     6.639000000
O    -5.063000000    -0.486000000     1.332000000
H    -5.031000000     0.239000000     0.708000000
H    -5.902000000    -0.382000000     1.779000000
O     1.961000000     2.085000000    -4.768000000
H     1.392000000     1.714000000    -5.443000000
H     1.481000000     2.847000000    -4.443000000
O    -0.810000000    -3.240000000     5.707000000
H    -1.569000000    -3.764000000     5.451000000
H    -0.278000000    -3.184000000     4.913000000
O    -3.368000000    -3.343000000    -5.614000000
H    -2.459000000    -3.455000000    -5.336000000
H    -3.714000000    -2.663000000    -5.035000000
O     3.560000000     3.227000000    -1.116000000
H     4.071000000     2.607000000    -0.595000000
H     4.181000000     3.920000000    -1.340000000
O    -2.784000000    -4.229000000    -2.273000000
H    -2.582000000    -5.147000000    -2.452000000
H    -2.393000000    -4.060000000    -1.415000000
O    -4.640000000    -1.591000000     4.004000000
H    -4.945000000    -1.169000000     3.201000000
H    -3.872000000    -2.094000000     3.734000000
O    -2.213000000    -4.043000000     0.926000000
H    -2.078000000    -4.973000000     1.108000000
H    -3.085000000    -3.855000000     1.273000000
O     2.640000000     3.662000000     1.559000000
H     2.645000000     3.184000000     0.730000000
H     1.836000000     4.181000000     1.532000000
O    -0.040000000     4.242000000     0.831000000
H    -0.722000000     3.732000000     1.268000000
H    -0.128000000     5.122000000     1.195000000
O    -2.554000000     5.823000000    -1.469000000
H    -2.640000000     6.355000000    -0.678000000
H    -2.663000000     4.922000000    -1.165000000
O     7.009000000    -1.574000000     3.646000000
H     7.626000000    -0.919000000     3.320000000
H     7.519000000    -2.383000000     3.690000000
O     5.118000000    -0.564000000     5.480000000
H     5.637000000    -1.098000000     4.879000000
H     4.227000000    -0.606000000     5.131000000
O    -0.679000000     0.948000000     6.344000000
H    -1.439000000     0.370000000     6.421000000
H    -0.800000000     1.597000000     7.036000000
O    -1.776000000     0.075000000    -5.282000000
H    -0.900000000     0.423000000    -5.446000000
H    -2.367000000     0.782000000    -5.542000000
O     4.795000000    -2.840000000     3.189000000
H     4.215000000    -2.166000000     2.834000000
H     5.640000000    -2.400000000     3.289000000
O     2.256000000    -4.655000000     6.940000000
H     2.173000000    -3.806000000     6.505000000
H     1.752000000    -5.256000000     6.391000000
O    -3.428000000    -1.534000000    -3.486000000
H    -2.944000000    -2.183000000    -2.975000000
H    -2.753000000    -1.061000000    -3.973000000
O    -3.004000000     2.600000000    -5.240000000
H    -2.986000000     2.569000000    -4.283000000
H    -2.390000000     3.298000000    -5.468000000
O     0.884000000     4.562000000    -5.223000000
H     0.100000000     4.351000000    -4.716000000
H     0.990000000     5.508000000    -5.118000000
O    -4.948000000     0.794000000    -1.888000000
H    -4.566000000     0.015000000    -2.292000000
H    -5.846000000     0.819000000    -2.219000000
O    -4.817000000     3.353000000    -2.040000000
H    -4.407000000     3.496000000    -1.187000000
H    -4.784000000     2.405000000    -2.165000000
O    -1.137000000     4.067000000    -3.632000000
H    -0.575000000     3.842000000    -2.891000000
H    -1.829000000     4.609000000    -3.252000000
O    -4.718000000     5.703000000    -3.125000000
H    -4.064000000     6.057000000    -2.522000000
H    -4.904000000     4.826000000    -2.788000000
O     5.736000000    -0.980000000    -1.301000000
H     6.297000000    -0.211000000    -1.399000000
H     6.325000000    -1.724000000    -1.427000000
O     4.646000000     3.185000000    -4.779000000
H     3.836000000     3.161000000    -4.270000000
H     4.401000000     2.834000000    -5.635000000
O    -3.846000000     2.876000000     2.856000000
H    -2.986000000     3.216000000     3.102000000
H    -4.089000000     2.294000000     3.577000000
O     4.568000000    -5.514000000     3.779000000
H     4.705000000    -5.795000000     2.874000000
H     4.574000000    -4.558000000     3.737000000
O    -0.805000000    -2.572000000    -1.060000000
H    -1.157000000    -2.948000000    -0.254000000
H    -0.437000000    -1.730000000    -0.792000000
O     5.532000000    -3.598000000     0.184000000
H     5.171000000    -3.010000000     0.848000000
H     6.479000000    -3.560000000     0.320000000
