158
-3054.85480
C     0.693000000     1.036000000     0.648000000
H     1.215000000     1.748000000     1.282000000
C     0.249000000    -0.113000000     1.271000000
H     0.258000000    -0.341000000     2.334000000
C    -0.247000000    -1.093000000     0.436000000
H    -0.537000000    -2.033000000     0.825000000
C    -0.533000000    -0.826000000    -0.874000000
H    -1.020000000    -1.581000000    -1.486000000
C    -0.051000000     0.390000000    -1.464000000
H    -0.389000000     0.545000000    -2.486000000
C     0.599000000     1.317000000    -0.687000000
C     1.016000000     2.711000000    -1.148000000
O     0.809000000     3.657000000    -0.392000000
O     1.320000000     2.962000000    -2.292000000
O    -1.716000000     0.433000000    -6.170000000
H    -0.931000000     0.640000000    -5.663000000
H    -1.958000000     1.260000000    -6.585000000
O    -0.308000000     4.570000000     1.972000000
H    -0.646000000     5.462000000     1.889000000
H     0.058000000     4.371000000     1.110000000
O     0.844000000    -0.936000000    -4.870000000
H     1.454000000    -1.501000000    -4.395000000
H     1.073000000    -1.058000000    -5.791000000
O     1.238000000     1.747000000    -4.642000000
H     1.314000000     2.065000000    -3.743000000
H     1.107000000     0.803000000    -4.551000000
O    -1.458000000    -2.013000000     6.954000000
H    -1.440000000    -1.967000000     7.910000000
H    -0.830000000    -1.349000000     6.670000000
O     5.380000000     1.188000000     3.538000000
H     4.806000000     1.422000000     2.809000000
H     6.170000000     0.844000000     3.121000000
O     4.455000000     6.377000000    -0.085000000
H     4.363000000     7.148000000    -0.644000000
H     5.308000000     6.010000000    -0.320000000
O     2.552000000    -1.574000000    -2.391000000
H     2.388000000    -1.062000000    -1.599000000
H     1.947000000    -2.313000000    -2.328000000
O     0.759000000    -0.513000000     6.381000000
H     1.482000000     0.044000000     6.094000000
H     1.008000000    -1.393000000     6.100000000
O     3.912000000     1.884000000    -2.042000000
H     3.021000000     2.196000000    -2.196000000
H     4.462000000     2.658000000    -2.166000000
O    -5.277000000    -4.168000000    -2.541000000
H    -4.613000000    -4.684000000    -2.084000000
H    -4.990000000    -3.261000000    -2.436000000
O    -2.721000000     0.137000000    -3.501000000
H    -3.530000000    -0.339000000    -3.689000000
H    -2.195000000     0.037000000    -4.294000000
O    -3.369000000     2.845000000    -2.206000000
H    -2.969000000     2.039000000    -2.533000000
H    -2.794000000     3.542000000    -2.520000000
O     1.754000000    -3.671000000     1.862000000
H     0.964000000    -3.972000000     1.412000000
H     2.417000000    -3.621000000     1.174000000
O    -2.562000000     4.674000000     0.231000000
H    -2.031000000     4.338000000     0.953000000
H    -2.703000000     3.915000000    -0.335000000
O     0.134000000    -5.386000000     4.499000000
H    -0.419000000    -5.154000000     5.245000000
H    -0.176000000    -4.827000000     3.787000000
O    -0.626000000     8.165000000    -0.035000000
H    -0.665000000     7.791000000     0.845000000
H    -0.537000000     7.408000000    -0.614000000
O     3.208000000     4.024000000     0.965000000
H     3.586000000     4.886000000     0.790000000
H     2.280000000     4.121000000     0.751000000
O    -0.018000000    -5.710000000     0.576000000
H     0.167000000    -6.326000000     1.285000000
H    -0.106000000    -6.261000000    -0.202000000
O    -3.452000000    -1.873000000    -1.122000000
H    -3.571000000    -1.530000000    -2.008000000
H    -2.924000000    -2.663000000    -1.241000000
O     0.338000000    -3.707000000    -1.848000000
H    -0.341000000    -3.927000000    -1.210000000
H     0.653000000    -4.554000000    -2.164000000
O    -2.582000000     0.682000000     4.164000000
H    -3.118000000     1.372000000     3.775000000
H    -1.696000000     0.859000000     3.846000000
O    -1.405000000    -2.779000000    -4.141000000
H    -0.938000000    -3.486000000    -3.696000000
H    -0.734000000    -2.118000000    -4.311000000
O     4.523000000     1.457000000     0.817000000
H     3.829000000     2.110000000     0.730000000
H     4.923000000     1.415000000    -0.052000000
O    -3.277000000    -2.577000000     1.867000000
H    -3.251000000    -2.585000000     2.824000000
H    -3.209000000    -1.652000000     1.633000000
O    -0.513000000     5.488000000    -6.023000000
H     0.429000000     5.318000000    -5.993000000
H    -0.694000000     5.670000000    -6.945000000
O     1.999000000     1.860000000     5.645000000
H     2.453000000     2.545000000     5.155000000
H     1.562000000     2.326000000     6.358000000
O     0.756000000     4.806000000     4.501000000
H     0.214000000     4.610000000     3.737000000
H     1.611000000     4.433000000     4.290000000
O     3.489000000    -4.040000000     4.013000000
H     2.995000000    -3.865000000     3.212000000
H     3.956000000    -4.855000000     3.834000000
O     2.171000000    -2.786000000     6.014000000
H     2.649000000    -3.171000000     5.280000000
H     2.081000000    -3.502000000     6.643000000
O     3.429000000    -0.930000000     0.249000000
H     2.995000000    -0.795000000     1.091000000
H     3.890000000    -0.108000000     0.082000000
O     4.036000000     6.430000000    -3.862000000
H     3.143000000     6.230000000    -4.142000000
H     4.093000000     7.385000000    -3.906000000
O    -0.075000000     1.696000000     3.970000000
H     0.597000000     1.454000000     4.608000000
H     0.368000000     2.297000000     3.372000000
O     1.541000000     4.603000000    -4.391000000
H     1.642000000     4.055000000    -3.612000000
H     1.929000000     4.087000000    -5.098000000
O    -5.397000000     1.486000000     1.194000000
H    -5.091000000     2.064000000     1.894000000
H    -4.607000000     1.036000000     0.893000000
O     5.319000000     4.228000000    -2.773000000
H     5.776000000     4.735000000    -2.102000000
H     4.708000000     4.850000000    -3.168000000
O    -6.024000000    -3.585000000     3.617000000
H    -6.543000000    -3.514000000     2.816000000
H    -5.211000000    -3.120000000     3.418000000
O    -3.244000000    -0.032000000     0.723000000
H    -3.350000000    -0.598000000    -0.041000000
H    -2.333000000     0.257000000     0.683000000
O    -6.023000000    -2.610000000     1.116000000
H    -6.244000000    -3.304000000     0.495000000
H    -5.067000000    -2.568000000     1.098000000
O    -3.544000000     2.967000000     2.986000000
H    -2.659000000     3.330000000     3.013000000
H    -4.097000000     3.704000000     2.726000000
O     3.095000000     3.641000000     3.780000000
H     3.709000000     4.268000000     4.160000000
H     3.344000000     3.591000000     2.857000000
O    -0.140000000     6.019000000    -1.574000000
H     0.034000000     5.193000000    -1.123000000
H     0.124000000     5.858000000    -2.480000000
O    -3.601000000    -1.836000000     4.420000000
H    -3.571000000    -0.930000000     4.114000000
H    -3.046000000    -1.844000000     5.200000000
O    -3.249000000    -4.278000000    -5.596000000
H    -2.795000000    -3.791000000    -4.907000000
H    -2.594000000    -4.895000000    -5.923000000
O     3.792000000    -3.676000000    -0.284000000
H     4.573000000    -3.549000000     0.254000000
H     3.475000000    -2.789000000    -0.458000000
O     1.947000000     2.023000000    -7.166000000
H     1.970000000     1.942000000    -6.212000000
H     1.404000000     1.290000000    -7.456000000
O    -0.995000000     3.960000000    -3.277000000
H    -0.160000000     3.673000000    -2.907000000
H    -0.752000000     4.590000000    -3.955000000
O    -2.141000000    -4.049000000    -0.261000000
H    -2.483000000    -3.660000000     0.544000000
H    -1.663000000    -4.825000000     0.032000000
