158
-3033.87714
C     0.924000000     0.825000000     0.887000000
H     1.685000000     1.241000000     1.541000000
C     0.786000000    -0.536000000     0.881000000
H     1.348000000    -1.183000000     1.549000000
C    -0.071000000    -1.217000000     0.014000000
H    -0.218000000    -2.284000000     0.069000000
C    -0.809000000    -0.483000000    -0.918000000
H    -1.358000000    -0.988000000    -1.709000000
C    -0.742000000     0.939000000    -0.863000000
H    -1.418000000     1.513000000    -1.492000000
C     0.142000000     1.596000000     0.012000000
C     0.183000000     3.042000000     0.091000000
O     0.796000000     3.638000000     1.006000000
O    -0.193000000     3.593000000    -0.959000000
O    -0.530000000    -2.262000000    -3.615000000
H    -0.938000000    -2.569000000    -2.805000000
H    -1.220000000    -1.772000000    -4.061000000
O    -2.585000000    -0.953000000    -5.127000000
H    -2.383000000    -1.047000000    -6.058000000
H    -3.540000000    -0.910000000    -5.092000000
O     1.978000000     0.539000000     4.162000000
H     1.748000000     1.324000000     4.659000000
H     2.329000000     0.872000000     3.336000000
O    -1.908000000     5.343000000    -1.951000000
H    -1.252000000     4.727000000    -1.625000000
H    -2.329000000     4.883000000    -2.677000000
O    -0.138000000    -3.977000000    -5.745000000
H    -0.886000000    -4.571000000    -5.686000000
H    -0.073000000    -3.588000000    -4.873000000
O    -1.384000000     0.186000000     4.198000000
H    -0.760000000     0.908000000     4.259000000
H    -2.103000000     0.440000000     4.776000000
O     4.796000000    -1.509000000    -1.310000000
H     4.899000000    -2.208000000    -1.956000000
H     5.665000000    -1.113000000    -1.244000000
O     4.103000000    -0.005000000     0.994000000
H     4.560000000    -0.189000000     0.173000000
H     4.542000000     0.770000000     1.344000000
O     2.933000000    -3.702000000    -0.280000000
H     3.344000000    -4.046000000    -1.073000000
H     2.762000000    -2.782000000    -0.478000000
O    -1.689000000     5.135000000     0.977000000
H    -0.972000000     4.962000000     0.367000000
H    -2.382000000     4.531000000     0.711000000
O     0.095000000     3.299000000     3.567000000
H    -0.833000000     3.520000000     3.645000000
H     0.265000000     3.308000000     2.625000000
O     1.647000000     5.442000000    -1.451000000
H     1.103000000     5.831000000    -2.136000000
H     1.094000000     4.764000000    -1.062000000
O    -1.789000000    -3.966000000    -1.528000000
H    -0.987000000    -4.484000000    -1.600000000
H    -2.097000000    -4.124000000    -0.636000000
O    -3.448000000    -5.771000000    -3.524000000
H    -3.648000000    -4.917000000    -3.141000000
H    -2.859000000    -6.185000000    -2.893000000
O     2.568000000    -1.841000000    -4.708000000
H     2.372000000    -0.958000000    -4.396000000
H     1.983000000    -2.408000000    -4.207000000
O     5.067000000    -2.447000000     4.482000000
H     4.354000000    -1.814000000     4.568000000
H     4.779000000    -3.038000000     3.786000000
O    -3.304000000     3.764000000    -3.738000000
H    -2.909000000     3.837000000    -4.606000000
H    -4.213000000     4.037000000    -3.864000000
O    -4.336000000    -3.247000000    -2.460000000
H    -4.653000000    -3.488000000    -1.589000000
H    -3.475000000    -2.859000000    -2.303000000
O    -3.069000000    -5.035000000     0.624000000
H    -2.997000000    -5.172000000     1.569000000
H    -2.920000000    -5.901000000     0.245000000
O    -3.045000000    -5.168000000     3.507000000
H    -3.082000000    -4.245000000     3.259000000
H    -2.566000000    -5.174000000     4.336000000
O     2.288000000     0.460000000    -2.957000000
H     2.202000000     0.131000000    -2.062000000
H     1.640000000     1.162000000    -3.018000000
O    -0.070000000     1.365000000    -5.112000000
H    -0.810000000     0.758000000    -5.139000000
H     0.134000000     1.534000000    -6.031000000
O    -2.661000000     7.632000000    -0.372000000
H    -2.132000000     6.877000000    -0.629000000
H    -3.415000000     7.607000000    -0.961000000
O     0.441000000     6.904000000    -3.590000000
H    -0.481000000     6.811000000    -3.831000000
H     0.910000000     6.364000000    -4.226000000
O     0.883000000     6.258000000     4.191000000
H     1.386000000     6.382000000     3.386000000
H     0.002000000     6.034000000     3.890000000
O    -2.547000000    -0.418000000     1.556000000
H    -1.866000000    -0.569000000     0.901000000
H    -2.066000000    -0.224000000     2.361000000
O     0.817000000    -5.567000000     0.196000000
H     0.839000000    -5.862000000     1.106000000
H     1.608000000    -5.038000000     0.096000000
O    -3.869000000     3.275000000    -0.882000000
H    -3.615000000     3.147000000    -1.796000000
H    -4.264000000     2.442000000    -0.624000000
O     3.874000000     6.852000000    -0.694000000
H     3.162000000     6.416000000    -1.162000000
H     4.665000000     6.403000000    -0.991000000
O     0.165000000    -5.552000000     2.923000000
H     0.834000000    -5.503000000     3.606000000
H    -0.547000000    -6.053000000     3.320000000
O    -1.779000000     6.017000000     3.410000000
H    -2.670000000     5.952000000     3.752000000
H    -1.794000000     5.504000000     2.603000000
O     4.698000000    -3.055000000     1.506000000
H     4.021000000    -3.505000000     1.000000000
H     4.561000000    -2.126000000     1.316000000
O     2.183000000     3.037000000     5.141000000
H     1.348000000     3.012000000     4.674000000
H     2.191000000     3.892000000     5.571000000
O    -4.194000000     1.034000000    -3.414000000
H    -4.611000000     0.496000000    -4.087000000
H    -3.320000000     1.215000000    -3.759000000
O     3.168000000     3.349000000     2.017000000
H     2.386000000     3.570000000     1.511000000
H     3.093000000     3.873000000     2.814000000
O    -5.408000000    -3.465000000     0.162000000
H    -5.652000000    -3.024000000     0.975000000
H    -4.629000000    -3.972000000     0.389000000
O     1.207000000     5.066000000    -5.208000000
H     1.102000000     4.249000000    -4.720000000
H     0.775000000     4.902000000    -6.046000000
O     4.310000000    -4.245000000    -2.703000000
H     4.036000000    -4.981000000    -3.250000000
H     4.758000000    -3.652000000    -3.307000000
O     4.028000000     3.701000000    -1.269000000
H     3.769000000     3.637000000    -0.349000000
H     3.203000000     3.668000000    -1.753000000
O    -3.586000000    -2.598000000     2.895000000
H    -4.520000000    -2.386000000     2.914000000
H    -3.183000000    -1.865000000     2.430000000
O     3.761000000     7.113000000     2.351000000
H     3.227000000     7.122000000     1.556000000
H     3.774000000     8.025000000     2.641000000
O     1.226000000     6.492000000     0.955000000
H     0.962000000     5.739000000     1.483000000
H     1.625000000     6.109000000     0.174000000
O    -4.635000000     0.511000000    -0.237000000
H    -4.196000000     0.746000000     0.581000000
H    -4.196000000    -0.290000000    -0.522000000
O     2.362000000    -4.809000000     4.372000000
H     2.424000000    -5.013000000     5.305000000
H     2.579000000    -3.878000000     4.315000000
O     0.968000000     2.989000000    -3.330000000
H     0.359000000     2.940000000    -2.593000000
H     0.541000000     2.492000000    -4.027000000
O     2.326000000    -2.093000000     4.337000000
H     2.092000000    -1.179000000     4.178000000
H     2.664000000    -2.101000000     5.233000000
O     0.680000000    -7.438000000    -1.851000000
H     0.567000000    -6.759000000    -1.186000000
H    -0.200000000    -7.583000000    -2.198000000
O    -0.473000000    -2.154000000     5.245000000
H    -0.777000000    -1.344000000     4.834000000
H     0.377000000    -2.323000000     4.840000000
