158
-3057.58792
C     1.436000000     0.164000000     0.154000000
H     2.523000000     0.191000000     0.122000000
C     0.744000000    -1.053000000     0.236000000
H     1.309000000    -1.980000000     0.193000000
C    -0.636000000    -1.088000000    -0.014000000
H    -1.121000000    -2.039000000    -0.143000000
C    -1.355000000     0.140000000     0.001000000
H    -2.442000000     0.152000000    -0.010000000
C    -0.646000000     1.356000000    -0.114000000
H    -1.200000000     2.290000000    -0.165000000
C     0.756000000     1.364000000    -0.052000000
C     1.515000000     2.629000000    -0.185000000
O     2.686000000     2.648000000    -0.641000000
O     1.150000000     3.637000000     0.358000000
O    -5.275000000     1.570000000    -3.495000000
H    -5.404000000     0.658000000    -3.237000000
H    -4.499000000     1.849000000    -3.009000000
O    -2.028000000     5.911000000     3.630000000
H    -2.948000000     5.886000000     3.369000000
H    -1.564000000     6.208000000     2.847000000
O     0.744000000    -2.608000000     4.305000000
H     1.389000000    -2.376000000     4.974000000
H     0.989000000    -3.492000000     4.032000000
O    -2.771000000     4.406000000     1.148000000
H    -1.837000000     4.565000000     1.014000000
H    -3.184000000     5.255000000     0.989000000
O    -0.785000000     3.273000000     3.518000000
H    -1.633000000     2.865000000     3.341000000
H    -1.000000000     4.169000000     3.778000000
O    -0.961000000    -6.548000000    -2.664000000
H    -1.285000000    -6.591000000    -3.564000000
H    -0.599000000    -7.418000000    -2.498000000
O    -5.029000000    -1.531000000     3.677000000
H    -4.483000000    -2.054000000     3.090000000
H    -4.466000000    -1.348000000     4.429000000
O     1.872000000    -4.622000000    -0.860000000
H     2.566000000    -4.463000000    -0.221000000
H     1.896000000    -5.567000000    -1.010000000
O    -1.652000000    -5.123000000     2.403000000
H    -2.201000000    -4.589000000     2.978000000
H    -2.231000000    -5.369000000     1.682000000
O    -3.513000000    -2.734000000     1.869000000
H    -3.772000000    -2.905000000     0.964000000
H    -2.599000000    -2.458000000     1.809000000
O     0.700000000    -2.676000000    -2.594000000
H     1.557000000    -2.261000000    -2.689000000
H     0.877000000    -3.483000000    -2.110000000
O    -1.126000000    -7.190000000     4.077000000
H    -1.496000000    -6.518000000     3.506000000
H    -0.410000000    -7.570000000     3.567000000
O    -5.421000000    -4.445000000    -0.306000000
H    -6.331000000    -4.736000000    -0.358000000
H    -5.020000000    -5.027000000     0.339000000
O     4.545000000     2.202000000     1.284000000
H     4.477000000     2.928000000     1.904000000
H     4.129000000     2.530000000     0.486000000
O    -2.041000000    -2.130000000    -4.181000000
H    -2.622000000    -2.200000000    -3.424000000
H    -1.320000000    -2.728000000    -3.985000000
O     2.399000000     6.627000000     3.041000000
H     2.174000000     5.722000000     3.259000000
H     2.334000000     6.666000000     2.087000000
O     6.455000000     4.417000000    -1.419000000
H     6.594000000     4.308000000    -0.479000000
H     5.676000000     4.969000000    -1.483000000
O    -1.275000000    -4.749000000    -0.658000000
H    -0.343000000    -4.646000000    -0.465000000
H    -1.302000000    -5.383000000    -1.375000000
O    -2.986000000     1.288000000     3.905000000
H    -3.242000000     0.907000000     4.745000000
H    -2.372000000     0.656000000     3.532000000
O     2.263000000     0.878000000    -5.053000000
H     1.380000000     1.136000000    -5.319000000
H     2.401000000     1.323000000    -4.217000000
O    -3.465000000    -3.375000000    -1.833000000
H    -4.133000000    -3.872000000    -1.360000000
H    -2.636000000    -3.773000000    -1.566000000
O    -3.616000000     2.634000000    -1.851000000
H    -2.739000000     2.843000000    -2.171000000
H    -3.592000000     2.858000000    -0.921000000
O     2.194000000     3.493000000    -3.037000000
H     2.493000000     3.106000000    -2.215000000
H     1.477000000     4.073000000    -2.783000000
O    -1.538000000     4.120000000    -4.384000000
H    -2.266000000     3.774000000    -4.901000000
H    -1.084000000     3.341000000    -4.060000000
O     3.604000000     5.349000000     0.699000000
H     3.726000000     6.118000000     0.142000000
H     3.301000000     4.666000000     0.101000000
O    -6.534000000    -0.596000000     1.596000000
H    -7.094000000     0.147000000     1.821000000
H    -6.081000000    -0.811000000     2.411000000
O     5.060000000     4.354000000     2.955000000
H     4.694000000     4.744000000     3.748000000
H     4.574000000     4.765000000     2.239000000
O     1.171000000    -4.898000000     2.948000000
H     1.785000000    -5.191000000     2.275000000
H     0.312000000    -4.953000000     2.530000000
O    -4.963000000    -1.340000000    -3.139000000
H    -4.481000000    -2.110000000    -2.836000000
H    -5.611000000    -1.178000000    -2.454000000
O     3.423000000    -2.144000000     2.302000000
H     2.705000000    -1.513000000     2.349000000
H     4.196000000    -1.647000000     2.569000000
O     2.741000000     1.062000000     4.221000000
H     2.648000000     1.959000000     3.900000000
H     1.845000000     0.777000000     4.399000000
O     2.865000000     4.034000000    -5.646000000
H     3.764000000     4.308000000    -5.465000000
H     2.533000000     3.728000000    -4.802000000
O     3.828000000    -1.896000000    -3.165000000
H     3.376000000    -1.966000000    -4.005000000
H     3.930000000    -0.955000000    -3.025000000
O    -0.015000000     4.538000000    -1.992000000
H     0.030000000     4.569000000    -1.036000000
H    -0.816000000     5.014000000    -2.210000000
O    -4.519000000     3.559000000     3.098000000
H    -4.273000000     3.790000000     2.203000000
H    -3.834000000     2.956000000     3.387000000
O    -0.135000000     5.821000000     0.888000000
H     0.431000000     5.082000000     0.666000000
H     0.450000000     6.579000000     0.893000000
O     0.110000000    -7.468000000     1.042000000
H    -0.621000000    -8.038000000     1.280000000
H    -0.305000000    -6.668000000     0.720000000
O     3.939000000     0.739000000    -2.098000000
H     4.367000000     1.421000000    -2.615000000
H     3.290000000     1.208000000    -1.573000000
O     2.056000000     3.533000000     2.892000000
H     2.140000000     3.741000000     1.961000000
H     1.116000000     3.421000000     3.029000000
O     5.500000000    -0.255000000     0.027000000
H     5.039000000    -0.134000000    -0.803000000
H     5.368000000     0.568000000     0.497000000
O     3.678000000    -4.657000000     1.412000000
H     4.530000000    -4.511000000     1.000000000
H     3.509000000    -3.854000000     1.904000000
O     0.048000000     0.694000000     4.926000000
H    -0.308000000     1.473000000     4.498000000
H    -0.354000000    -0.039000000     4.460000000
O    -0.674000000     1.517000000    -5.036000000
H    -0.982000000     0.869000000    -5.670000000
H    -0.692000000     1.058000000    -4.196000000
O     4.929000000    -0.309000000     3.439000000
H     5.391000000     0.234000000     2.801000000
H     4.055000000     0.078000000     3.495000000
O    -0.302000000     0.105000000    -2.904000000
H    -0.244000000     0.244000000    -1.958000000
H    -0.308000000    -0.846000000    -3.007000000
O    -6.778000000    -0.494000000    -1.197000000
H    -6.852000000     0.460000000    -1.173000000
H    -6.578000000    -0.741000000    -0.293000000
O    -2.008000000    -3.698000000     4.793000000
H    -1.507000000    -2.914000000     4.568000000
H    -1.509000000    -4.107000000     5.500000000
O    -1.227000000    -1.289000000     3.170000000
H    -0.794000000    -1.141000000     2.330000000
H    -0.556000000    -1.697000000     3.717000000
