158
-2996.36282
C     1.322000000    -0.482000000     0.523000000
H     2.242000000    -0.926000000     0.895000000
C     0.112000000    -1.188000000     0.593000000
H     0.062000000    -2.219000000     0.934000000
C    -1.045000000    -0.580000000     0.081000000
H    -2.004000000    -1.071000000     0.117000000
C    -1.037000000     0.694000000    -0.506000000
H    -1.985000000     1.015000000    -0.930000000
C     0.135000000     1.413000000    -0.478000000
H     0.084000000     2.406000000    -0.917000000
C     1.345000000     0.812000000     0.021000000
C     2.655000000     1.571000000    -0.064000000
O     3.721000000     0.997000000     0.026000000
O     2.558000000     2.728000000    -0.434000000
O    -1.832000000    -6.530000000    -1.599000000
H    -2.113000000    -5.645000000    -1.830000000
H    -2.537000000    -6.870000000    -1.048000000
O    -3.766000000     2.414000000    -2.229000000
H    -3.865000000     1.462000000    -2.213000000
H    -4.619000000     2.738000000    -2.518000000
O     4.580000000     6.643000000    -0.932000000
H     4.301000000     7.554000000    -1.031000000
H     3.963000000     6.144000000    -1.468000000
O    -2.616000000    -2.589000000    -2.878000000
H    -1.667000000    -2.591000000    -3.003000000
H    -2.967000000    -2.277000000    -3.712000000
O     0.722000000     4.990000000    -2.936000000
H    -0.162000000     5.132000000    -2.598000000
H     1.226000000     5.734000000    -2.607000000
O    -2.730000000     5.176000000    -2.764000000
H    -2.924000000     5.439000000    -3.664000000
H    -2.961000000     4.248000000    -2.731000000
O     7.397000000     0.966000000     3.899000000
H     7.095000000     1.845000000     4.127000000
H     6.721000000     0.624000000     3.313000000
O    -0.352000000    -3.119000000     6.009000000
H    -0.308000000    -2.581000000     5.218000000
H     0.274000000    -3.827000000     5.851000000
O    -0.432000000     3.211000000     3.000000000
H     0.136000000     3.527000000     3.703000000
H    -0.149000000     3.698000000     2.226000000
O     7.642000000    -0.483000000    -1.662000000
H     8.176000000    -0.231000000    -2.416000000
H     6.765000000    -0.615000000    -2.023000000
O    -2.477000000     1.639000000     3.923000000
H    -1.619000000     1.837000000     3.548000000
H    -2.815000000     0.924000000     3.385000000
O     8.160000000     2.981000000     0.020000000
H     7.635000000     2.217000000     0.258000000
H     7.611000000     3.730000000     0.251000000
O     5.406000000     2.310000000    -1.748000000
H     4.980000000     1.857000000    -1.021000000
H     4.683000000     2.630000000    -2.288000000
O    -3.151000000    -6.582000000     1.998000000
H    -3.085000000    -7.196000000     2.729000000
H    -3.359000000    -7.131000000     1.242000000
O     2.606000000     5.858000000     2.962000000
H     2.319000000     5.714000000     2.060000000
H     1.964000000     5.390000000     3.495000000
O     4.684000000     3.601000000     1.654000000
H     4.789000000     2.885000000     1.027000000
H     3.778000000     3.888000000     1.540000000
O     1.102000000     4.571000000     0.676000000
H     1.501000000     3.829000000     0.222000000
H     0.724000000     5.105000000    -0.023000000
O    -4.720000000     4.486000000     1.917000000
H    -4.675000000     3.603000000     1.552000000
H    -3.926000000     4.917000000     1.603000000
O     7.221000000     2.490000000    -3.916000000
H     8.099000000     2.112000000    -3.953000000
H     6.970000000     2.425000000    -2.994000000
O     4.229000000    -2.984000000     0.845000000
H     5.175000000    -3.031000000     0.707000000
H     4.131000000    -2.876000000     1.791000000
O     3.062000000     3.418000000    -3.036000000
H     2.202000000     3.529000000    -3.440000000
H     2.874000000     3.272000000    -2.109000000
O     1.297000000    -3.971000000     3.816000000
H     2.240000000    -4.125000000     3.873000000
H     0.934000000    -4.810000000     3.532000000
O    -4.793000000     2.057000000     0.732000000
H    -5.022000000     1.156000000     0.962000000
H    -4.185000000     1.969000000    -0.001000000
O     2.747000000     0.526000000    -5.130000000
H     2.525000000     0.877000000    -4.268000000
H     1.994000000     0.743000000    -5.679000000
O     4.763000000    -1.080000000    -1.280000000
H     4.603000000    -1.797000000    -0.666000000
H     4.256000000    -0.347000000    -0.929000000
O    -3.882000000    -0.422000000    -1.752000000
H    -3.386000000    -1.241000000    -1.755000000
H    -4.173000000    -0.321000000    -0.846000000
O    -5.196000000    -4.656000000     0.843000000
H    -4.241000000    -4.631000000     0.904000000
H    -5.481000000    -4.989000000     1.694000000
O    -3.033000000    -1.089000000     3.317000000
H    -2.093000000    -1.186000000     3.473000000
H    -3.424000000    -1.867000000     3.714000000
O     0.096000000    -3.889000000    -1.161000000
H    -0.552000000    -4.181000000    -0.519000000
H    -0.060000000    -2.948000000    -1.246000000
O    -0.188000000    -1.438000000    -2.465000000
H    -0.169000000    -0.769000000    -3.149000000
H    -0.335000000    -0.949000000    -1.655000000
O    -7.215000000    -3.071000000     1.760000000
H    -6.438000000    -3.459000000     1.359000000
H    -7.413000000    -3.644000000     2.501000000
O    -1.637000000    -4.468000000     0.819000000
H    -1.154000000    -4.059000000     1.537000000
H    -1.892000000    -5.325000000     1.160000000
O     4.847000000     0.327000000     2.404000000
H     4.393000000    -0.443000000     2.746000000
H     4.388000000     0.533000000     1.589000000
O    -5.119000000    -0.329000000     1.645000000
H    -4.378000000    -0.644000000     2.162000000
H    -5.832000000    -0.242000000     2.277000000
O    -5.800000000     0.220000000    -4.222000000
H    -5.494000000     1.042000000    -4.605000000
H    -5.087000000    -0.056000000    -3.647000000
O    -0.239000000     0.680000000    -4.135000000
H    -1.038000000     1.200000000    -4.228000000
H     0.210000000     0.779000000    -4.974000000
O     2.716000000    -5.019000000    -0.426000000
H     1.765000000    -4.995000000    -0.532000000
H     2.929000000    -4.200000000     0.020000000
O    -0.129000000    -1.302000000     3.691000000
H     0.327000000    -1.824000000     3.031000000
H     0.523000000    -0.666000000     3.986000000
O     5.076000000     4.054000000    -4.713000000
H     4.383000000     3.674000000    -4.174000000
H     5.732000000     3.359000000    -4.784000000
O     6.034000000     3.333000000     4.133000000
H     6.168000000     4.141000000     4.628000000
H     5.677000000     3.623000000     3.294000000
O     6.694000000    -3.258000000     0.151000000
H     7.546000000    -3.551000000     0.473000000
H     6.866000000    -2.401000000    -0.239000000
O     4.887000000    -2.084000000    -3.981000000
H     4.069000000    -2.252000000    -4.449000000
H     4.652000000    -1.441000000    -3.313000000
O     1.877000000     0.397000000     3.688000000
H     2.820000000     0.352000000     3.530000000
H     1.779000000     1.080000000     4.352000000
O     2.016000000    -2.413000000    -3.682000000
H     2.175000000    -3.222000000    -3.197000000
H     1.278000000    -2.004000000    -3.231000000
O    -5.664000000    -3.150000000    -1.461000000
H    -5.214000000    -3.061000000    -0.620000000
H    -5.033000000    -2.828000000    -2.105000000
O     3.959000000    -1.881000000     3.421000000
H     3.248000000    -2.386000000     3.815000000
H     4.607000000    -1.794000000     4.121000000
O     7.147000000     0.689000000     0.915000000
H     6.285000000     0.367000000     1.178000000
H     7.202000000     0.492000000    -0.020000000
O     6.505000000     5.757000000     0.769000000
H     5.972000000     5.007000000     1.034000000
H     5.938000000     6.258000000     0.182000000
