158
-3025.23695
C     1.118000000    -0.867000000    -0.263000000
H     1.824000000    -1.678000000    -0.424000000
C    -0.174000000    -1.295000000    -0.242000000
H    -0.529000000    -2.314000000    -0.367000000
C    -1.133000000    -0.391000000     0.155000000
H    -2.092000000    -0.819000000     0.290000000
C    -0.849000000     0.970000000     0.290000000
H    -1.563000000     1.700000000     0.663000000
C     0.441000000     1.465000000     0.081000000
H     0.641000000     2.529000000     0.168000000
C     1.492000000     0.518000000    -0.141000000
C     2.899000000     0.909000000    -0.470000000
O     3.881000000     0.222000000    -0.210000000
O     2.989000000     2.055000000    -0.908000000
O    -2.798000000    -1.532000000    -5.394000000
H    -2.315000000    -2.228000000    -4.948000000
H    -3.438000000    -1.233000000    -4.748000000
O    -3.407000000     1.976000000     2.954000000
H    -2.882000000     1.179000000     3.011000000
H    -4.274000000     1.674000000     2.682000000
O    -2.962000000    -5.551000000    -1.517000000
H    -3.149000000    -4.816000000    -0.933000000
H    -2.372000000    -6.113000000    -1.014000000
O     0.642000000     5.503000000     1.267000000
H     0.431000000     4.759000000     1.831000000
H     0.040000000     5.422000000     0.528000000
O    -5.205000000    -1.193000000    -4.048000000
H    -4.992000000    -1.538000000    -3.180000000
H    -5.592000000    -0.335000000    -3.875000000
O     0.206000000     2.879000000    -3.907000000
H     0.170000000     3.542000000    -3.217000000
H    -0.379000000     2.185000000    -3.603000000
O     1.498000000    -3.851000000     3.571000000
H     2.420000000    -3.612000000     3.481000000
H     1.028000000    -3.018000000     3.519000000
O    -5.909000000     1.220000000     1.552000000
H    -6.845000000     1.386000000     1.436000000
H    -5.828000000     0.267000000     1.507000000
O     3.280000000     5.866000000     1.241000000
H     3.528000000     5.056000000     0.794000000
H     2.330000000     5.803000000     1.340000000
O    -7.781000000    -1.916000000    -2.712000000
H    -6.919000000    -1.823000000    -2.307000000
H    -7.756000000    -2.772000000    -3.138000000
O    -4.669000000     2.929000000    -0.202000000
H    -4.343000000     2.312000000    -0.857000000
H    -4.927000000     2.379000000     0.537000000
O     0.552000000     5.116000000     4.518000000
H     1.307000000     5.521000000     4.945000000
H     0.932000000     4.480000000     3.913000000
O     7.620000000     2.597000000    -2.632000000
H     6.852000000     2.232000000    -2.193000000
H     7.406000000     3.522000000    -2.758000000
O     2.270000000    -5.452000000     0.051000000
H     1.968000000    -5.661000000    -0.834000000
H     1.644000000    -4.801000000     0.369000000
O     0.876000000    -3.673000000    -2.344000000
H     0.959000000    -3.064000000    -3.078000000
H     1.289000000    -4.479000000    -2.654000000
O     0.029000000     2.025000000     5.481000000
H    -0.622000000     2.346000000     6.105000000
H    -0.006000000     2.649000000     4.756000000
O     1.248000000     3.201000000     2.772000000
H     2.066000000     2.815000000     3.085000000
H     0.627000000     2.472000000     2.763000000
O     4.549000000     3.586000000     0.347000000
H     3.993000000     2.930000000    -0.072000000
H     5.433000000     3.379000000     0.046000000
O     2.089000000     4.536000000    -1.774000000
H     2.631000000     3.757000000    -1.650000000
H     1.230000000     4.287000000    -1.431000000
O    -4.198000000    -3.819000000     0.014000000
H    -4.964000000    -4.028000000     0.549000000
H    -4.524000000    -3.202000000    -0.641000000
O     4.341000000     2.208000000    -3.149000000
H     3.698000000     2.304000000    -3.851000000
H     3.818000000     2.029000000    -2.368000000
O     4.484000000    -2.556000000     3.106000000
H     5.211000000    -2.687000000     3.715000000
H     4.818000000    -2.866000000     2.264000000
O    -2.450000000    -3.211000000     2.288000000
H    -2.801000000    -2.968000000     1.431000000
H    -3.225000000    -3.334000000     2.837000000
O     3.905000000    -1.914000000    -3.444000000
H     4.175000000    -1.698000000    -2.551000000
H     4.345000000    -1.263000000    -3.991000000
O    -0.586000000     4.144000000    -1.148000000
H    -1.210000000     4.693000000    -1.624000000
H    -1.082000000     3.812000000    -0.400000000
O     5.294000000    -1.836000000    -1.109000000
H     4.860000000    -2.574000000    -0.680000000
H     4.786000000    -1.071000000    -0.842000000
O    -2.331000000     6.809000000     1.510000000
H    -3.278000000     6.836000000     1.646000000
H    -2.200000000     6.106000000     0.874000000
O    -2.430000000     3.912000000     1.344000000
H    -2.370000000     3.583000000     2.240000000
H    -3.364000000     3.883000000     1.139000000
O    -1.196000000    -6.709000000     0.185000000
H    -1.728000000    -6.891000000     0.960000000
H    -0.520000000    -6.106000000     0.494000000
O    -2.576000000    -0.734000000     3.711000000
H    -2.636000000    -1.575000000     3.258000000
H    -3.304000000    -0.744000000     4.332000000
O    -0.428000000     0.212000000    -3.127000000
H    -0.212000000    -0.355000000    -3.868000000
H     0.225000000    -0.006000000    -2.461000000
O     6.384000000     1.188000000    -0.734000000
H     6.781000000     0.992000000     0.115000000
H     5.485000000     0.868000000    -0.657000000
O    -2.090000000    -2.737000000    -2.992000000
H    -2.085000000    -3.576000000    -2.532000000
H    -1.325000000    -2.272000000    -2.652000000
O    -3.557000000     1.114000000    -1.886000000
H    -3.439000000     1.771000000    -2.572000000
H    -2.673000000     0.790000000    -1.711000000
O     0.619000000     6.826000000    -2.353000000
H     1.272000000     6.203000000    -2.036000000
H    -0.222000000     6.424000000    -2.134000000
O     5.749000000     0.227000000    -4.609000000
H     5.640000000     0.887000000    -5.294000000
H     5.503000000     0.678000000    -3.801000000
O     3.138000000     1.855000000     4.200000000
H     2.766000000     1.403000000     4.957000000
H     3.618000000     1.175000000     3.727000000
O     6.915000000     2.316000000     1.913000000
H     5.993000000     2.082000000     2.021000000
H     7.024000000     3.109000000     2.438000000
O    -6.310000000    -1.746000000     0.988000000
H    -7.157000000    -1.739000000     0.543000000
H    -6.470000000    -2.227000000     1.800000000
O     1.186000000    -2.074000000    -4.480000000
H     2.108000000    -2.140000000    -4.234000000
H     1.161000000    -2.354000000    -5.395000000
O    -4.672000000    -2.748000000     3.851000000
H    -5.551000000    -2.410000000     4.018000000
H    -4.531000000    -3.399000000     4.539000000
O     0.189000000    -1.515000000     3.517000000
H    -0.744000000    -1.384000000     3.685000000
H     0.562000000    -0.634000000     3.541000000
O     4.136000000     0.067000000     2.295000000
H     4.154000000     0.050000000     1.338000000
H     4.300000000    -0.839000000     2.554000000
O     4.659000000    -4.221000000     0.039000000
H     5.166000000    -4.805000000     0.603000000
H     3.788000000    -4.616000000     0.006000000
O     2.463000000     1.147000000    -5.428000000
H     2.097000000     1.987000000    -5.151000000
H     1.699000000     0.588000000    -5.569000000
O    -4.761000000    -1.551000000    -1.465000000
H    -5.174000000    -1.256000000    -0.654000000
H    -4.222000000    -0.810000000    -1.743000000
O     8.081000000    -1.559000000    -0.566000000
H     7.168000000    -1.272000000    -0.552000000
H     8.061000000    -2.438000000    -0.188000000
O     0.055000000    -4.208000000     1.306000000
H    -0.770000000    -4.040000000     1.762000000
H     0.711000000    -3.731000000     1.813000000
