158
-3043.58872
C     1.490000000     0.152000000    -0.067000000
H     2.527000000     0.086000000    -0.384000000
C     0.784000000    -1.023000000     0.327000000
H     1.280000000    -1.986000000     0.416000000
C    -0.636000000    -1.030000000     0.405000000
H    -1.272000000    -1.887000000     0.711000000
C    -1.276000000     0.163000000     0.075000000
H    -2.362000000     0.148000000     0.033000000
C    -0.619000000     1.341000000    -0.206000000
H    -1.200000000     2.248000000    -0.350000000
C     0.770000000     1.351000000    -0.321000000
C     1.462000000     2.717000000    -0.746000000
O     2.686000000     2.789000000    -0.664000000
O     0.782000000     3.525000000    -1.304000000
O    -3.203000000     5.839000000     1.782000000
H    -4.137000000     6.019000000     1.683000000
H    -2.826000000     6.674000000     2.060000000
O     3.710000000     5.454000000    -0.776000000
H     4.213000000     5.671000000     0.009000000
H     3.394000000     4.564000000    -0.619000000
O    -3.129000000    -0.719000000    -2.420000000
H    -2.176000000    -0.708000000    -2.504000000
H    -3.289000000    -1.093000000    -1.553000000
O    -0.186000000    -5.708000000     3.647000000
H    -0.612000000    -6.475000000     3.267000000
H     0.533000000    -5.510000000     3.047000000
O    -1.306000000     4.715000000    -2.274000000
H    -0.604000000     4.152000000    -1.947000000
H    -0.917000000     5.589000000    -2.304000000
O    -4.032000000     3.878000000    -1.890000000
H    -4.113000000     4.652000000    -1.332000000
H    -3.304000000     4.081000000    -2.477000000
O    -0.374000000     4.548000000    -5.346000000
H    -0.367000000     5.035000000    -4.522000000
H    -1.210000000     4.777000000    -5.752000000
O     2.545000000     4.025000000    -3.564000000
H     2.159000000     3.260000000    -3.990000000
H     2.182000000     4.014000000    -2.679000000
O     0.926000000    -5.570000000    -4.555000000
H     0.568000000    -5.267000000    -5.389000000
H     0.918000000    -4.793000000    -3.995000000
O    -2.503000000    -3.879000000     5.969000000
H    -2.922000000    -4.669000000     5.627000000
H    -1.602000000    -4.145000000     6.152000000
O    -0.247000000    -0.152000000     3.186000000
H     0.134000000    -0.975000000     3.492000000
H    -0.211000000    -0.212000000     2.231000000
O     6.670000000     0.183000000    -1.462000000
H     6.078000000    -0.437000000    -1.037000000
H     6.090000000     0.819000000    -1.882000000
O    -0.264000000     8.119000000    -1.823000000
H     0.625000000     7.863000000    -2.071000000
H    -0.172000000     8.474000000    -0.938000000
O    -3.003000000     3.151000000     1.217000000
H    -3.350000000     3.324000000     0.342000000
H    -2.959000000     4.013000000     1.632000000
O     4.804000000     1.956000000    -2.430000000
H     3.971000000     2.086000000    -1.976000000
H     5.183000000     2.833000000    -2.488000000
O     2.389000000     7.511000000    -1.789000000
H     2.940000000     6.918000000    -1.278000000
H     2.780000000     7.510000000    -2.662000000
O    -2.317000000     1.834000000     3.759000000
H    -2.577000000     1.963000000     2.847000000
H    -1.486000000     1.362000000     3.706000000
O     2.592000000     5.845000000     3.140000000
H     2.038000000     5.689000000     2.375000000
H     2.036000000     5.625000000     3.887000000
O     1.258000000     5.527000000     0.846000000
H     1.266000000     5.233000000    -0.065000000
H     0.428000000     5.202000000     1.195000000
O    -6.334000000     3.271000000     1.252000000
H    -6.310000000     2.375000000     0.918000000
H    -6.831000000     3.759000000     0.595000000
O     4.091000000    -2.854000000     1.860000000
H     4.148000000    -3.387000000     2.654000000
H     3.998000000    -1.957000000     2.180000000
O    -0.060000000    -0.543000000    -2.681000000
H     0.577000000     0.108000000    -2.975000000
H     0.103000000    -0.630000000    -1.741000000
O    -2.085000000    -4.307000000     1.114000000
H    -2.133000000    -5.262000000     1.093000000
H    -1.864000000    -4.097000000     2.021000000
O    -0.124000000    -2.665000000    -4.344000000
H    -0.353000000    -1.957000000    -3.743000000
H    -0.781000000    -2.612000000    -5.038000000
O    -6.757000000     0.785000000     0.378000000
H    -6.923000000     0.286000000    -0.422000000
H    -6.589000000     0.120000000     1.045000000
O     4.899000000     5.507000000    -3.524000000
H     4.725000000     5.561000000    -2.584000000
H     4.158000000     5.014000000    -3.877000000
O     5.173000000    -2.170000000    -0.650000000
H     5.093000000    -2.566000000     0.218000000
H     6.066000000    -2.378000000    -0.927000000
O    -4.128000000    -4.227000000     3.480000000
H    -4.032000000    -3.294000000     3.672000000
H    -4.234000000    -4.638000000     4.338000000
O    -5.581000000    -1.816000000     1.835000000
H    -5.100000000    -1.823000000     2.663000000
H    -6.300000000    -2.433000000     1.971000000
O     1.352000000    -3.278000000    -1.936000000
H     1.063000000    -2.523000000    -2.448000000
H     0.553000000    -3.782000000    -1.780000000
O     2.268000000    -4.977000000     2.924000000
H     3.160000000    -5.033000000     3.267000000
H     2.220000000    -5.673000000     2.268000000
O    -1.133000000    -4.468000000    -1.444000000
H    -1.656000000    -5.153000000    -1.861000000
H    -1.483000000    -4.407000000    -0.555000000
O    -4.193000000    -6.523000000     1.809000000
H    -5.113000000    -6.414000000     1.569000000
H    -3.999000000    -5.766000000     2.361000000
O     2.114000000     0.486000000     4.928000000
H     1.352000000     1.034000000     4.741000000
H     1.744000000    -0.339000000     5.242000000
O    -3.779000000    -2.319000000    -0.135000000
H    -3.236000000    -2.961000000     0.323000000
H    -4.402000000    -2.017000000     0.526000000
O     5.120000000    -0.423000000    -4.195000000
H     5.056000000     0.435000000    -3.775000000
H     5.071000000    -0.235000000    -5.132000000
O     4.674000000     1.399000000     1.100000000
H     5.583000000     1.453000000     0.807000000
H     4.173000000     1.833000000     0.409000000
O    -6.850000000    -2.589000000    -0.738000000
H    -6.140000000    -2.292000000    -0.168000000
H    -7.222000000    -3.344000000    -0.283000000
O    -2.376000000     1.930000000    -3.291000000
H    -2.884000000     2.493000000    -2.706000000
H    -2.714000000     1.049000000    -3.128000000
O     3.276000000    -4.330000000    -0.407000000
H     3.377000000    -3.740000000     0.340000000
H     2.606000000    -3.915000000    -0.951000000
O    -3.694000000    -1.221000000     3.819000000
H    -3.865000000    -0.890000000     4.701000000
H    -3.012000000    -0.644000000     3.475000000
O     4.031000000    -2.737000000    -3.313000000
H     3.957000000    -2.627000000    -2.365000000
H     4.599000000    -2.020000000    -3.594000000
O     1.121000000    -2.490000000     4.645000000
H     1.743000000    -3.177000000     4.404000000
H     0.420000000    -2.952000000     5.104000000
O     0.244000000     1.789000000    -4.441000000
H    -0.532000000     1.625000000    -3.906000000
H     0.133000000     2.686000000    -4.755000000
O    -1.542000000    -7.448000000     2.314000000
H    -1.698000000    -8.289000000     2.743000000
H    -2.383000000    -7.223000000     1.915000000
O    -5.420000000    -3.008000000    -3.059000000
H    -4.782000000    -2.330000000    -2.840000000
H    -6.032000000    -3.008000000    -2.323000000
O     3.719000000    -0.531000000     3.078000000
H     3.849000000     0.228000000     2.511000000
H     3.105000000    -0.228000000     3.747000000
O     4.867000000     5.305000000     1.744000000
H     4.176000000     5.376000000     2.403000000
H     5.368000000     4.532000000     2.004000000
