158
-3042.78112
C     1.399000000     0.488000000    -0.082000000
H     2.462000000     0.590000000    -0.284000000
C     0.918000000    -0.479000000     0.766000000
H     1.702000000    -1.018000000     1.292000000
C    -0.436000000    -0.815000000     0.872000000
H    -0.615000000    -1.760000000     1.425000000
C    -1.270000000    -0.219000000    -0.015000000
H    -2.280000000    -0.597000000    -0.149000000
C    -0.898000000     0.913000000    -0.688000000
H    -1.685000000     1.453000000    -1.209000000
C     0.474000000     1.269000000    -0.811000000
C     0.956000000     2.339000000    -1.738000000
O     2.071000000     2.249000000    -2.168000000
O     0.181000000     3.117000000    -2.318000000
O    -2.579000000     6.312000000    -1.864000000
H    -1.810000000     6.539000000    -2.387000000
H    -2.219000000     5.930000000    -1.063000000
O     0.811000000    -2.506000000     5.436000000
H     1.314000000    -2.850000000     4.698000000
H     0.942000000    -3.148000000     6.135000000
O     2.315000000     3.185000000    -4.567000000
H     1.725000000     2.633000000    -5.081000000
H     2.107000000     2.974000000    -3.656000000
O     0.106000000    -5.911000000     2.460000000
H     0.914000000    -5.500000000     2.765000000
H     0.338000000    -6.831000000     2.334000000
O    -4.146000000     1.301000000    -3.395000000
H    -4.791000000     1.786000000    -3.909000000
H    -3.323000000     1.765000000    -3.542000000
O    -0.002000000     5.416000000    -4.381000000
H    -0.347000000     4.888000000    -5.101000000
H     0.140000000     4.790000000    -3.671000000
O    -1.783000000    -6.434000000    -1.826000000
H    -2.594000000    -6.178000000    -2.265000000
H    -1.172000000    -5.723000000    -2.019000000
O    -2.078000000     2.465000000     1.424000000
H    -2.678000000     2.200000000     2.121000000
H    -1.721000000     1.643000000     1.089000000
O     6.948000000     1.273000000    -0.723000000
H     7.560000000     0.698000000    -0.263000000
H     6.688000000     0.774000000    -1.497000000
O     6.049000000     0.931000000     2.214000000
H     5.766000000     1.514000000     1.510000000
H     5.408000000     0.221000000     2.210000000
O    -2.474000000     3.437000000    -3.146000000
H    -2.590000000     4.191000000    -2.569000000
H    -1.586000000     3.130000000    -2.964000000
O    -2.279000000    -2.873000000    -2.792000000
H    -1.970000000    -3.666000000    -2.354000000
H    -3.036000000    -2.594000000    -2.278000000
O     3.183000000     1.531000000     3.524000000
H     2.615000000     2.106000000     3.011000000
H     3.372000000     0.798000000     2.939000000
O     2.414000000    -0.860000000    -3.449000000
H     2.031000000    -0.682000000    -4.308000000
H     3.006000000    -0.123000000    -3.293000000
O    -4.825000000    -1.285000000     2.325000000
H    -5.572000000    -1.880000000     2.256000000
H    -4.168000000    -1.781000000     2.812000000
O     3.908000000    -3.021000000    -2.400000000
H     4.310000000    -2.960000000    -3.266000000
H     2.995000000    -2.769000000    -2.541000000
O     3.439000000     4.503000000    -1.369000000
H     2.877000000     3.755000000    -1.571000000
H     3.664000000     4.871000000    -2.223000000
O    -1.025000000     7.768000000    -3.863000000
H    -0.314000000     8.396000000    -3.731000000
H    -0.588000000     6.918000000    -3.914000000
O     4.282000000    -1.367000000     2.464000000
H     4.610000000    -1.304000000     1.567000000
H     5.025000000    -1.696000000     2.969000000
O    -2.928000000     0.648000000     3.695000000
H    -2.555000000    -0.234000000     3.694000000
H    -2.172000000     1.228000000     3.790000000
O    -0.826000000    -1.279000000    -4.526000000
H    -1.380000000    -1.628000000    -3.828000000
H    -0.437000000    -2.053000000    -4.933000000
O    -4.124000000    -2.166000000    -0.534000000
H    -4.265000000    -2.555000000     0.329000000
H    -4.274000000    -1.230000000    -0.402000000
O    -1.116000000     3.598000000    -6.118000000
H    -1.137000000     2.783000000    -5.617000000
H    -0.495000000     3.428000000    -6.826000000
O    -5.291000000    -3.612000000    -2.512000000
H    -4.885000000    -3.200000000    -1.749000000
H    -4.904000000    -4.488000000    -2.544000000
O     0.762000000     6.665000000    -1.603000000
H     1.404000000     5.978000000    -1.421000000
H     1.239000000     7.305000000    -2.131000000
O     4.809000000    -0.650000000    -0.114000000
H     5.716000000    -0.389000000    -0.275000000
H     4.579000000    -1.194000000    -0.867000000
O     4.472000000     1.446000000    -2.825000000
H     4.982000000     2.212000000    -3.088000000
H     3.560000000     1.733000000    -2.883000000
O     1.970000000    -3.143000000     2.716000000
H     2.617000000    -2.440000000     2.772000000
H     1.573000000    -3.034000000     1.851000000
O     6.531000000    -0.443000000    -2.725000000
H     5.726000000     0.038000000    -2.917000000
H     6.717000000    -0.930000000    -3.528000000
O    -0.136000000    -4.587000000    -2.568000000
H     0.267000000    -4.246000000    -3.366000000
H    -0.074000000    -3.866000000    -1.941000000
O    -2.868000000    -3.910000000     3.028000000
H    -2.884000000    -4.537000000     3.751000000
H    -2.486000000    -4.397000000     2.298000000
O    -5.861000000     1.097000000     1.534000000
H    -5.665000000     1.336000000     0.628000000
H    -5.271000000     0.368000000     1.723000000
O     3.003000000     5.903000000    -4.592000000
H     3.034000000     4.981000000    -4.846000000
H     2.070000000     6.119000000    -4.586000000
O     3.232000000    -5.763000000     1.876000000
H     4.141000000    -6.062000000     1.841000000
H     3.169000000    -5.109000000     1.179000000
O     4.414000000     2.321000000     0.380000000
H     4.199000000     3.221000000     0.135000000
H     4.376000000     1.833000000    -0.443000000
O    -1.807000000    -5.319000000     0.672000000
H    -1.477000000    -5.802000000    -0.086000000
H    -1.172000000    -5.499000000     1.365000000
O    -5.305000000     1.670000000    -1.139000000
H    -4.670000000     1.422000000    -1.811000000
H    -6.036000000     2.047000000    -1.628000000
O    -4.447000000    -5.421000000     0.476000000
H    -3.537000000    -5.134000000     0.404000000
H    -4.471000000    -6.262000000     0.020000000
O     0.452000000    -2.029000000    -1.657000000
H    -0.075000000    -1.510000000    -1.050000000
H     0.982000000    -1.384000000    -2.125000000
O    -1.494000000    -1.712000000     4.275000000
H    -1.721000000    -2.565000000     3.904000000
H    -0.752000000    -1.892000000     4.853000000
O     1.410000000    -0.253000000    -5.877000000
H     1.370000000    -1.071000000    -6.372000000
H     0.519000000    -0.129000000    -5.549000000
O    -6.268000000    -0.768000000    -2.964000000
H    -5.922000000    -1.658000000    -3.034000000
H    -5.494000000    -0.206000000    -3.012000000
O    -1.600000000     1.118000000    -5.218000000
H    -2.209000000     0.660000000    -5.797000000
H    -1.373000000     0.472000000    -4.549000000
O     5.558000000     3.922000000    -3.894000000
H     6.015000000     4.727000000    -3.652000000
H     5.694000000     3.844000000    -4.839000000
O     2.429000000    -3.407000000    -0.245000000
H     3.044000000    -3.213000000    -0.953000000
H     1.630000000    -2.937000000    -0.486000000
O    -1.322000000     4.619000000    -0.047000000
H    -1.579000000     3.994000000     0.630000000
H    -0.936000000     4.079000000    -0.737000000
O     3.800000000    -4.638000000     4.375000000
H     4.427000000    -5.290000000     4.062000000
H     3.340000000    -4.351000000     3.586000000
O    -0.956000000     2.485000000     4.454000000
H    -0.257000000     2.426000000     3.803000000
H    -1.211000000     3.408000000     4.448000000
