158
-3032.28035
C     0.678000000     1.233000000     0.407000000
H     1.118000000     2.091000000     0.911000000
C     0.289000000     0.215000000     1.262000000
H     0.322000000     0.372000000     2.337000000
C    -0.280000000    -0.960000000     0.758000000
H    -0.625000000    -1.769000000     1.328000000
C    -0.572000000    -1.018000000    -0.629000000
H    -1.240000000    -1.781000000    -1.023000000
C    -0.170000000     0.048000000    -1.461000000
H    -0.363000000    -0.136000000    -2.514000000
C     0.428000000     1.207000000    -0.942000000
C     0.903000000     2.330000000    -1.939000000
O     1.557000000     3.300000000    -1.528000000
O     0.581000000     2.307000000    -3.118000000
O     3.091000000     3.905000000    -3.612000000
H     2.610000000     4.732000000    -3.648000000
H     2.644000000     3.397000000    -2.934000000
O    -1.184000000    -4.351000000     1.672000000
H    -0.918000000    -5.223000000     1.964000000
H    -0.564000000    -3.758000000     2.097000000
O    -1.622000000     2.847000000     3.443000000
H    -2.354000000     2.801000000     4.058000000
H    -0.885000000     2.462000000     3.918000000
O    -1.870000000     4.251000000    -2.003000000
H    -0.963000000     4.012000000    -2.194000000
H    -2.171000000     3.578000000    -1.392000000
O     0.407000000     4.192000000    -5.286000000
H    -0.488000000     4.367000000    -4.994000000
H     0.701000000     3.465000000    -4.737000000
O    -0.322000000    -4.506000000    -2.335000000
H     0.197000000    -3.808000000    -2.734000000
H     0.323000000    -5.071000000    -1.910000000
O    -3.176000000     0.403000000     1.796000000
H    -3.540000000    -0.096000000     1.064000000
H    -2.836000000    -0.262000000     2.394000000
O    -0.819000000     5.489000000     1.123000000
H    -1.280000000     4.670000000     1.306000000
H    -1.482000000     6.169000000     1.244000000
O    -3.285000000    -2.664000000    -4.559000000
H    -2.994000000    -3.563000000    -4.411000000
H    -3.799000000    -2.708000000    -5.365000000
O     4.006000000     0.326000000    -4.206000000
H     3.192000000     0.099000000    -4.657000000
H     4.516000000    -0.483000000    -4.212000000
O    -2.041000000     5.812000000    -4.542000000
H    -2.054000000     5.353000000    -3.702000000
H    -2.918000000     5.680000000    -4.901000000
O    -2.159000000     2.809000000     0.883000000
H    -2.019000000     2.831000000     1.830000000
H    -2.273000000     1.880000000     0.680000000
O     0.976000000     5.712000000    -0.814000000
H     0.386000000     5.493000000    -0.092000000
H     1.380000000     4.878000000    -1.054000000
O    -1.994000000    -0.261000000     6.436000000
H    -1.052000000    -0.135000000     6.548000000
H    -2.212000000    -0.979000000     7.030000000
O     0.320000000     7.582000000    -2.791000000
H    -0.632000000     7.563000000    -2.694000000
H     0.644000000     7.021000000    -2.087000000
O     0.732000000    -1.407000000     4.204000000
H     1.181000000    -2.129000000     3.765000000
H    -0.198000000    -1.610000000     4.110000000
O     1.435000000    -0.515000000    -5.047000000
H     0.615000000    -0.082000000    -4.806000000
H     1.277000000    -0.854000000    -5.928000000
O    -5.355000000    -4.385000000    -2.000000000
H    -5.410000000    -4.513000000    -2.947000000
H    -4.426000000    -4.496000000    -1.797000000
O    -2.476000000    -5.071000000    -4.012000000
H    -1.747000000    -4.811000000    -3.449000000
H    -2.588000000    -6.006000000    -3.844000000
O    -0.464000000     1.330000000    -7.604000000
H     0.197000000     0.661000000    -7.785000000
H    -0.815000000     1.094000000    -6.745000000
O     3.387000000     7.361000000    -0.948000000
H     3.894000000     7.003000000    -1.676000000
H     2.578000000     6.848000000    -0.945000000
O     3.678000000     1.781000000    -0.411000000
H     4.296000000     1.775000000    -1.142000000
H     2.826000000     1.620000000    -0.817000000
O    -3.850000000    -3.507000000     1.853000000
H    -4.081000000    -3.755000000     2.748000000
H    -2.931000000    -3.761000000     1.765000000
O     1.295000000    -2.482000000    -3.348000000
H     1.348000000    -1.738000000    -3.947000000
H     1.274000000    -2.087000000    -2.476000000
O    -4.133000000    -1.472000000    -0.139000000
H    -3.992000000    -2.414000000    -0.038000000
H    -3.966000000    -1.303000000    -1.066000000
O    -1.004000000    -6.553000000     3.255000000
H    -1.510000000    -6.454000000     4.061000000
H    -0.480000000    -7.341000000     3.395000000
O    -4.364000000    -0.780000000    -2.837000000
H    -3.783000000    -0.031000000    -2.968000000
H    -4.154000000    -1.374000000    -3.558000000
O     2.120000000     6.334000000    -4.403000000
H     1.522000000     5.982000000    -5.063000000
H     1.566000000     6.880000000    -3.845000000
O     2.097000000     6.130000000     2.257000000
H     2.621000000     5.549000000     1.705000000
H     1.192000000     5.874000000     2.083000000
O     3.742000000     4.406000000     0.813000000
H     3.573000000     3.702000000     0.187000000
H     4.273000000     5.037000000     0.327000000
O    -1.429000000    -2.853000000     7.264000000
H    -1.192000000    -3.652000000     6.794000000
H    -0.590000000    -2.472000000     7.527000000
O    -2.691000000    -4.100000000    -0.957000000
H    -1.984000000    -3.858000000    -1.555000000
H    -2.274000000    -4.143000000    -0.097000000
O    -3.414000000     1.701000000    -3.900000000
H    -4.040000000     2.091000000    -3.291000000
H    -3.888000000     1.647000000    -4.730000000
O     4.123000000     0.245000000     1.880000000
H     4.524000000    -0.614000000     1.748000000
H     4.229000000     0.691000000     1.040000000
O    -1.125000000     5.449000000     4.474000000
H    -1.743000000     5.134000000     5.133000000
H    -0.991000000     4.701000000     3.893000000
O     2.389000000    -1.602000000    -0.731000000
H     1.618000000    -1.418000000    -0.194000000
H     3.012000000    -0.914000000    -0.498000000
O     1.786000000    -6.166000000    -1.600000000
H     2.190000000    -5.706000000    -0.865000000
H     2.381000000    -6.893000000    -1.785000000
O     5.163000000     2.247000000    -2.648000000
H     4.519000000     2.806000000    -3.085000000
H     5.104000000     1.410000000    -3.108000000
O     1.025000000    -0.482000000     6.966000000
H     1.398000000    -0.967000000     7.703000000
H     1.115000000    -1.074000000     6.220000000
O     1.426000000    -3.464000000     2.719000000
H     1.812000000    -3.640000000     1.860000000
H     1.766000000    -4.160000000     3.281000000
O     3.114000000     2.727000000    -6.250000000
H     2.538000000     2.381000000    -5.569000000
H     3.335000000     3.609000000    -5.952000000
O    -0.922000000     1.227000000    -4.975000000
H    -1.865000000     1.316000000    -4.840000000
H    -0.531000000     1.592000000    -4.181000000
O    -3.765000000    -4.278000000     5.236000000
H    -3.062000000    -4.725000000     5.707000000
H    -3.701000000    -3.366000000     5.519000000
O     3.083000000    -4.481000000     0.805000000
H     3.355000000    -3.606000000     0.526000000
H     3.846000000    -4.836000000     1.260000000
O    -4.395000000    -6.935000000     1.316000000
H    -5.035000000    -7.176000000     1.986000000
H    -3.780000000    -6.357000000     1.769000000
O     0.551000000     1.685000000     4.678000000
H     1.464000000     1.893000000     4.480000000
H     0.495000000     0.734000000     4.580000000
O     3.264000000     0.995000000     4.534000000
H     4.054000000     1.024000000     5.073000000
H     3.583000000     1.073000000     3.635000000
O     4.472000000    -1.638000000     4.232000000
H     3.689000000    -1.123000000     4.035000000
H     5.023000000    -1.542000000     3.456000000
