158
-3056.09964
C     1.455000000    -0.095000000     0.189000000
H     2.509000000    -0.216000000     0.425000000
C     0.546000000    -1.025000000     0.678000000
H     0.868000000    -1.902000000     1.234000000
C    -0.807000000    -0.790000000     0.504000000
H    -1.525000000    -1.549000000     0.859000000
C    -1.222000000     0.339000000    -0.161000000
H    -2.299000000     0.427000000    -0.273000000
C    -0.287000000     1.250000000    -0.715000000
H    -0.656000000     2.113000000    -1.265000000
C     1.083000000     1.024000000    -0.535000000
C     1.936000000     2.157000000    -1.079000000
O     3.118000000     2.004000000    -0.996000000
O     1.457000000     3.176000000    -1.472000000
O    -0.420000000    -1.798000000     4.780000000
H     0.235000000    -1.100000000     4.755000000
H    -0.184000000    -2.320000000     5.548000000
O     3.792000000     1.035000000    -3.390000000
H     3.114000000     0.363000000    -3.461000000
H     3.576000000     1.509000000    -2.587000000
O    -4.714000000    -3.171000000     3.095000000
H    -4.215000000    -2.356000000     3.156000000
H    -5.166000000    -3.239000000     3.937000000
O     5.444000000     5.958000000     0.870000000
H     6.258000000     5.989000000     0.367000000
H     4.768000000     6.228000000     0.249000000
O     1.708000000    -4.176000000     3.544000000
H     2.105000000    -3.412000000     3.962000000
H     2.283000000    -4.370000000     2.804000000
O    -4.344000000     3.876000000     0.405000000
H    -4.591000000     4.315000000    -0.409000000
H    -3.438000000     4.143000000     0.557000000
O     0.759000000     3.052000000    -4.023000000
H     0.407000000     2.179000000    -4.193000000
H     0.984000000     3.043000000    -3.093000000
O     7.800000000     1.692000000     0.219000000
H     8.208000000     1.737000000    -0.646000000
H     6.882000000     1.489000000     0.040000000
O    -1.502000000     4.640000000    -3.540000000
H    -1.944000000     4.336000000    -4.332000000
H    -0.675000000     4.158000000    -3.527000000
O     0.355000000     5.345000000     0.086000000
H     0.639000000     4.545000000    -0.357000000
H     0.639000000     6.053000000    -0.492000000
O     4.256000000    -1.773000000     3.062000000
H     4.966000000    -1.233000000     2.713000000
H     3.823000000    -2.129000000     2.286000000
O     1.399000000    -1.362000000    -3.246000000
H     1.466000000    -1.455000000    -4.196000000
H     0.465000000    -1.227000000    -3.083000000
O    -2.187000000    -6.820000000    -3.141000000
H    -2.885000000    -7.310000000    -3.576000000
H    -2.575000000    -6.534000000    -2.314000000
O    -5.292000000    -4.075000000     0.282000000
H    -4.784000000    -4.038000000     1.092000000
H    -5.450000000    -3.158000000     0.056000000
O     6.387000000    -0.230000000    -2.794000000
H     5.639000000    -0.021000000    -3.355000000
H     6.480000000    -1.180000000    -2.863000000
O     3.004000000     5.157000000    -2.614000000
H     2.879000000     4.560000000    -1.876000000
H     3.171000000     4.582000000    -3.361000000
O     6.265000000    -0.493000000     1.795000000
H     6.693000000    -1.146000000     1.242000000
H     5.908000000     0.147000000     1.179000000
O    -2.846000000    -1.275000000     3.798000000
H    -2.011000000    -1.534000000     4.186000000
H    -2.739000000    -0.344000000     3.600000000
O    -4.331000000    -2.054000000    -2.659000000
H    -4.742000000    -1.189000000    -2.675000000
H    -4.716000000    -2.487000000    -1.898000000
O    -0.328000000     0.753000000    -4.898000000
H    -1.207000000     0.444000000    -5.120000000
H     0.256000000     0.229000000    -5.446000000
O     1.357000000     7.203000000    -1.646000000
H     1.737000000     6.719000000    -2.379000000
H     2.027000000     7.846000000    -1.411000000
O     6.362000000     3.920000000    -3.034000000
H     7.253000000     3.584000000    -2.945000000
H     5.937000000     3.315000000    -3.643000000
O     1.930000000     5.017000000    -5.706000000
H     1.333000000     4.652000000    -5.052000000
H     2.361000000     4.253000000    -6.090000000
O     3.712000000    -4.138000000     1.340000000
H     4.337000000    -4.756000000     0.962000000
H     3.029000000    -4.052000000     0.676000000
O    -3.481000000    -6.054000000    -0.885000000
H    -4.033000000    -5.373000000    -0.499000000
H    -3.685000000    -6.841000000    -0.380000000
O     5.285000000     6.255000000    -2.417000000
H     5.694000000     5.417000000    -2.631000000
H     4.355000000     6.121000000    -2.597000000
O     0.649000000    -7.313000000    -0.595000000
H     0.618000000    -6.421000000    -0.250000000
H     1.330000000    -7.287000000    -1.267000000
O    -0.109000000    -4.920000000     0.530000000
H    -0.487000000    -4.299000000     1.152000000
H    -0.137000000    -4.464000000    -0.311000000
O     0.077000000    -4.789000000     5.761000000
H     0.391000000    -4.983000000     4.877000000
H     0.866000000    -4.550000000     6.248000000
O    -5.846000000    -1.549000000    -0.226000000
H    -5.702000000    -0.717000000     0.224000000
H    -6.793000000    -1.585000000    -0.363000000
O     5.160000000    -3.730000000    -1.828000000
H     5.230000000    -3.237000000    -2.646000000
H     4.276000000    -3.544000000    -1.511000000
O     1.644000000    -0.217000000     4.000000000
H     1.620000000     0.724000000     3.827000000
H     2.431000000    -0.523000000     3.550000000
O     5.332000000     0.805000000    -0.403000000
H     4.493000000     1.221000000    -0.601000000
H     5.592000000     0.387000000    -1.224000000
O     0.049000000    -3.965000000    -1.773000000
H    -0.303000000    -4.417000000    -2.540000000
H    -0.171000000    -3.044000000    -1.916000000
O    -6.130000000     1.406000000    -0.423000000
H    -5.643000000     2.194000000    -0.182000000
H    -6.669000000     1.213000000     0.345000000
O     0.306000000     6.915000000     2.133000000
H     0.536000000     6.280000000     1.453000000
H     0.149000000     7.730000000     1.657000000
O     1.712000000     2.356000000     2.795000000
H     2.450000000     2.712000000     2.300000000
H     1.631000000     2.935000000     3.553000000
O    -3.363000000    -5.454000000     2.958000000
H    -2.575000000    -4.915000000     2.885000000
H    -4.066000000    -4.827000000     3.131000000
O    -1.283000000    -1.495000000    -2.675000000
H    -2.021000000    -1.495000000    -3.285000000
H    -1.541000000    -0.881000000    -1.987000000
O    -0.175000000    -6.659000000     3.175000000
H    -0.059000000    -6.108000000     2.402000000
H    -1.116000000    -6.830000000     3.208000000
O    -0.945000000    -3.838000000     2.966000000
H    -0.009000000    -4.010000000     3.067000000
H    -1.160000000    -3.250000000     3.690000000
O    -3.133000000    -4.622000000     5.998000000
H    -2.194000000    -4.541000000     5.829000000
H    -3.191000000    -4.839000000     6.929000000
O     5.802000000     2.307000000    -5.455000000
H     5.100000000     1.688000000    -5.254000000
H     6.595000000     1.771000000    -5.476000000
O     2.596000000    -2.849000000    -1.206000000
H     1.725000000    -3.239000000    -1.130000000
H     2.512000000    -2.212000000    -1.915000000
O    -5.144000000     0.608000000    -2.965000000
H    -5.973000000     0.175000000    -3.168000000
H    -5.329000000     1.122000000    -2.179000000
O    -1.929000000     4.360000000     1.528000000
H    -1.505000000     3.582000000     1.890000000
H    -1.247000000     4.784000000     1.006000000
O     4.120000000     3.377000000     1.481000000
H     4.153000000     2.898000000     0.653000000
H     4.782000000     4.062000000     1.387000000
O    -0.963000000     1.733000000     2.712000000
H    -0.747000000     1.586000000     1.791000000
H    -0.133000000     1.985000000     3.116000000
