158
-3020.36025
C     1.152000000    -0.927000000    -0.306000000
H     1.828000000    -1.773000000    -0.402000000
C    -0.124000000    -1.104000000    -0.790000000
H    -0.323000000    -1.997000000    -1.377000000
C    -1.135000000    -0.147000000    -0.486000000
H    -2.193000000    -0.434000000    -0.885000000
C    -0.839000000     0.954000000     0.249000000
H    -1.640000000     1.655000000     0.467000000
C     0.459000000     1.109000000     0.773000000
H     0.714000000     2.043000000     1.266000000
C     1.492000000     0.219000000     0.458000000
C     2.890000000     0.435000000     1.030000000
O     3.772000000    -0.301000000     0.665000000
O     3.122000000     1.459000000     1.592000000
O    -5.315000000     0.797000000     1.847000000
H    -5.774000000     0.084000000     2.290000000
H    -5.992000000     1.455000000     1.688000000
O    -2.251000000    -5.389000000     2.900000000
H    -1.920000000    -4.574000000     2.521000000
H    -1.475000000    -5.818000000     3.260000000
O     3.244000000     3.734000000    -0.120000000
H     2.797000000     3.604000000    -0.956000000
H     3.142000000     2.900000000     0.338000000
O    -4.914000000    -5.273000000    -0.744000000
H    -5.154000000    -5.374000000    -1.665000000
H    -5.742000000    -5.355000000    -0.270000000
O     0.978000000     5.405000000     1.508000000
H     1.554000000     5.924000000     2.069000000
H     1.573000000     4.872000000     0.981000000
O     0.350000000    -5.265000000    -3.687000000
H     1.272000000    -5.018000000    -3.754000000
H     0.071000000    -4.923000000    -2.838000000
O    -5.437000000     3.946000000     1.840000000
H    -6.313000000     4.206000000     2.123000000
H    -5.408000000     4.173000000     0.910000000
O    -2.067000000    -2.149000000    -5.857000000
H    -2.668000000    -1.404000000    -5.848000000
H    -1.293000000    -1.827000000    -6.320000000
O     6.676000000    -0.006000000     4.833000000
H     6.684000000     0.435000000     5.683000000
H     6.309000000     0.641000000     4.231000000
O     2.884000000    -4.485000000    -3.471000000
H     3.526000000    -4.402000000    -4.176000000
H     3.166000000    -5.257000000    -2.980000000
O    -2.508000000     4.018000000     1.496000000
H    -3.454000000     3.991000000     1.642000000
H    -2.296000000     4.951000000     1.473000000
O    -0.982000000    -2.931000000     1.750000000
H    -0.597000000    -2.060000000     1.848000000
H    -1.414000000    -2.907000000     0.896000000
O    -2.959000000     0.672000000    -6.503000000
H    -2.243000000     1.040000000    -7.021000000
H    -2.770000000     0.943000000    -5.605000000
O     1.685000000    -2.917000000     3.268000000
H     2.117000000    -3.276000000     2.493000000
H     0.755000000    -2.911000000     3.041000000
O     0.107000000     0.995000000    -3.018000000
H    -0.085000000     0.611000000    -2.162000000
H     0.539000000     1.824000000    -2.816000000
O    -2.659000000     1.684000000    -3.697000000
H    -2.896000000     1.735000000    -2.771000000
H    -1.707000000     1.791000000    -3.707000000
O     4.352000000    -0.074000000    -1.886000000
H     5.229000000    -0.423000000    -2.041000000
H     4.244000000    -0.111000000    -0.935000000
O     3.475000000     4.768000000     2.981000000
H     3.782000000     4.316000000     2.195000000
H     4.148000000     4.590000000     3.638000000
O     6.920000000    -3.845000000     1.234000000
H     7.527000000    -3.261000000     0.779000000
H     6.407000000    -3.265000000     1.797000000
O    -1.323000000    -4.846000000    -5.733000000
H    -1.680000000    -3.963000000    -5.642000000
H    -0.786000000    -4.969000000    -4.950000000
O     3.936000000    -2.883000000     1.243000000
H     3.782000000    -1.997000000     0.914000000
H     4.635000000    -2.779000000     1.890000000
O    -2.988000000    -3.439000000    -0.688000000
H    -3.696000000    -4.077000000    -0.603000000
H    -3.422000000    -2.589000000    -0.617000000
O    -6.855000000    -0.065000000    -0.813000000
H    -7.047000000    -0.538000000    -1.623000000
H    -5.904000000     0.043000000    -0.819000000
O    -1.847000000     3.641000000    -1.364000000
H    -1.944000000     3.540000000    -0.417000000
H    -2.716000000     3.903000000    -1.666000000
O     7.406000000     2.275000000     0.168000000
H     7.930000000     2.198000000    -0.629000000
H     6.653000000     2.807000000    -0.090000000
O     3.603000000    -5.055000000    -0.150000000
H     4.105000000    -5.144000000    -0.961000000
H     3.725000000    -4.141000000     0.108000000
O    -0.857000000    -5.125000000    -1.212000000
H    -1.516000000    -4.541000000    -0.837000000
H    -1.268000000    -5.989000000    -1.202000000
O     8.830000000    -1.744000000     0.929000000
H     9.410000000    -1.162000000     0.438000000
H     8.092000000    -1.189000000     1.181000000
O    -6.862000000    -1.280000000    -3.295000000
H    -7.487000000    -0.775000000    -3.815000000
H    -6.545000000    -1.957000000    -3.893000000
O    -5.008000000     4.341000000    -0.714000000
H    -5.478000000     4.363000000    -1.547000000
H    -4.966000000     5.256000000    -0.438000000
O    -1.778000000     3.081000000     4.239000000
H    -1.661000000     3.204000000     3.297000000
H    -2.693000000     3.312000000     4.399000000
O     2.753000000    -1.689000000    -3.786000000
H     2.632000000    -2.638000000    -3.753000000
H     3.041000000    -1.453000000    -2.904000000
O     1.068000000     3.522000000    -1.759000000
H     0.179000000     3.234000000    -1.552000000
H     1.100000000     4.431000000    -1.462000000
O     6.862000000    -0.676000000    -2.757000000
H     6.983000000    -0.367000000    -3.655000000
H     7.742000000    -0.667000000    -2.380000000
O     6.525000000    -0.034000000     1.078000000
H     6.792000000     0.757000000     0.610000000
H     5.569000000    -0.006000000     1.069000000
O     1.474000000     3.633000000     5.669000000
H     1.360000000     2.899000000     5.066000000
H     2.326000000     4.003000000     5.437000000
O     2.955000000     0.258000000     6.258000000
H     2.707000000     0.778000000     5.494000000
H     2.987000000    -0.643000000     5.935000000
O    -3.085000000    -0.223000000     3.218000000
H    -3.737000000     0.248000000     2.699000000
H    -3.365000000    -1.137000000     3.183000000
O    -3.160000000    -5.495000000    -3.620000000
H    -2.637000000    -6.180000000    -4.037000000
H    -2.603000000    -5.163000000    -2.917000000
O     1.067000000    -5.751000000     0.629000000
H     1.937000000    -5.440000000     0.378000000
H     0.513000000    -5.545000000    -0.124000000
O    -4.095000000     1.271000000    -0.806000000
H    -4.321000000     1.168000000     0.118000000
H    -4.294000000     2.187000000    -1.001000000
O     6.013000000    -2.102000000     3.212000000
H     6.176000000    -1.171000000     3.061000000
H     6.598000000    -2.334000000     3.933000000
O    -8.016000000    -2.666000000    -0.026000000
H    -7.520000000    -1.917000000    -0.356000000
H    -8.725000000    -2.276000000     0.486000000
O     5.080000000     1.613000000     3.371000000
H     4.493000000     2.143000000     3.911000000
H     4.559000000     1.388000000     2.601000000
O     5.690000000     3.794000000    -1.169000000
H     5.738000000     4.434000000    -1.879000000
H     4.826000000     3.931000000    -0.780000000
O     0.672000000    -0.581000000    -5.082000000
H     1.412000000    -1.109000000    -4.784000000
H     0.518000000     0.039000000    -4.368000000
O     1.820000000     1.180000000     3.815000000
H     2.028000000     1.448000000     2.920000000
H     1.172000000     0.484000000     3.712000000
O    -0.475000000    -0.601000000     3.843000000
H    -0.663000000    -1.178000000     4.583000000
H    -1.334000000    -0.287000000     3.560000000
