158
-3036.91864
C     1.127000000    -0.895000000     0.436000000
H     1.883000000    -1.646000000     0.651000000
C    -0.108000000    -1.300000000    -0.165000000
H    -0.380000000    -2.344000000    -0.295000000
C    -1.070000000    -0.366000000    -0.509000000
H    -2.108000000    -0.620000000    -0.827000000
C    -0.782000000     0.998000000    -0.249000000
H    -1.556000000     1.746000000    -0.403000000
C     0.428000000     1.436000000     0.265000000
H     0.758000000     2.463000000     0.394000000
C     1.366000000     0.485000000     0.676000000
C     2.678000000     0.916000000     1.271000000
O     3.669000000     0.312000000     0.958000000
O     2.662000000     1.789000000     2.062000000
O    -5.958000000    -0.728000000     1.427000000
H    -5.630000000     0.070000000     1.841000000
H    -6.848000000    -0.826000000     1.765000000
O    -2.597000000    -3.330000000     3.380000000
H    -3.255000000    -3.096000000     2.725000000
H    -1.792000000    -3.453000000     2.877000000
O     3.179000000     2.171000000    -2.414000000
H     2.669000000     2.827000000    -1.939000000
H     2.551000000     1.476000000    -2.611000000
O    -6.986000000    -3.219000000    -1.595000000
H    -6.161000000    -3.430000000    -2.032000000
H    -7.178000000    -3.991000000    -1.062000000
O     0.861000000     5.897000000     0.192000000
H     1.197000000     5.293000000     0.855000000
H     0.804000000     5.370000000    -0.605000000
O    -0.954000000    -4.571000000    -3.205000000
H    -0.087000000    -4.968000000    -3.126000000
H    -1.383000000    -4.763000000    -2.371000000
O    -5.572000000     2.193000000     2.360000000
H    -6.472000000     2.296000000     2.048000000
H    -5.032000000     2.549000000     1.655000000
O    -2.332000000    -0.918000000    -4.797000000
H    -2.082000000     0.003000000    -4.726000000
H    -1.516000000    -1.399000000    -4.660000000
O     8.059000000     3.660000000     0.822000000
H     8.293000000     4.030000000     1.673000000
H     7.198000000     3.264000000     0.962000000
O    -2.594000000    -0.337000000     2.089000000
H    -1.903000000    -0.275000000     1.430000000
H    -3.158000000    -1.045000000     1.779000000
O    -0.494000000     6.378000000     3.148000000
H     0.103000000     5.653000000     2.962000000
H    -1.201000000     5.981000000     3.657000000
O     0.859000000    -2.768000000     4.280000000
H     1.680000000    -2.309000000     4.458000000
H     0.995000000    -3.648000000     4.631000000
O     1.389000000     0.136000000    -2.556000000
H     2.167000000    -0.357000000    -2.294000000
H     0.719000000    -0.122000000    -1.923000000
O    -2.582000000     2.077000000    -4.459000000
H    -2.749000000     1.432000000    -3.771000000
H    -1.855000000     2.601000000    -4.125000000
O     4.244000000    -1.175000000    -1.577000000
H     5.126000000    -0.839000000    -1.741000000
H     4.066000000    -0.946000000    -0.665000000
O     1.641000000     4.293000000     2.436000000
H     2.009000000     3.443000000     2.193000000
H     2.295000000     4.680000000     3.018000000
O    -2.107000000    -4.339000000    -6.158000000
H    -2.958000000    -3.920000000    -6.288000000
H    -1.903000000    -4.186000000    -5.236000000
O     4.245000000    -2.313000000     1.902000000
H     3.881000000    -1.534000000     1.482000000
H     5.150000000    -2.352000000     1.591000000
O    -3.926000000    -2.320000000     0.823000000
H    -4.046000000    -2.955000000     0.117000000
H    -4.746000000    -1.828000000     0.845000000
O    -6.834000000    -0.407000000    -2.236000000
H    -6.944000000    -0.819000000    -3.093000000
H    -6.769000000    -1.140000000    -1.625000000
O    -2.954000000     3.677000000    -0.416000000
H    -3.155000000     4.008000000     0.459000000
H    -3.743000000     3.856000000    -0.927000000
O    -4.450000000    -2.934000000    -5.233000000
H    -4.636000000    -3.055000000    -4.302000000
H    -3.894000000    -2.155000000    -5.266000000
O     3.465000000    -4.978000000     0.870000000
H     4.385000000    -5.231000000     0.802000000
H     3.485000000    -4.107000000     1.268000000
O     3.440000000     5.340000000     4.727000000
H     4.203000000     5.073000000     5.238000000
H     3.305000000     6.259000000     4.958000000
O    -2.171000000    -4.738000000    -0.692000000
H    -1.705000000    -4.461000000     0.097000000
H    -2.690000000    -5.491000000    -0.412000000
O     6.821000000    -2.324000000     0.814000000
H     6.925000000    -2.007000000    -0.083000000
H     7.339000000    -1.717000000     1.344000000
O    -1.071000000    -6.804000000     2.776000000
H    -0.528000000    -7.138000000     3.490000000
H    -0.720000000    -5.932000000     2.596000000
O     2.530000000    -2.265000000    -3.369000000
H     2.492000000    -3.196000000    -3.150000000
H     3.221000000    -1.915000000    -2.807000000
O    -0.921000000     3.589000000    -2.481000000
H    -1.486000000     3.715000000    -1.719000000
H    -0.047000000     3.830000000    -2.173000000
O     6.524000000     1.040000000     1.515000000
H     6.335000000     0.796000000     2.420000000
H     5.664000000     1.102000000     1.099000000
O     1.946000000     4.795000000    -2.212000000
H     2.684000000     5.253000000    -1.809000000
H     1.745000000     5.307000000    -2.996000000
O    -0.319000000    -4.148000000     1.607000000
H     0.136000000    -4.060000000     0.770000000
H     0.205000000    -3.633000000     2.220000000
O     0.990000000     4.004000000     5.535000000
H     0.985000000     3.333000000     4.852000000
H     1.839000000     4.435000000     5.442000000
O     2.331000000     0.001000000     7.010000000
H     1.953000000    -0.875000000     6.939000000
H     2.081000000     0.437000000     6.195000000
O    -3.741000000     0.916000000     4.091000000
H    -4.495000000     1.274000000     3.623000000
H    -3.297000000     0.366000000     3.445000000
O    -4.699000000    -4.220000000    -2.653000000
H    -3.993000000    -4.620000000    -2.147000000
H    -4.920000000    -4.875000000    -3.316000000
O     1.189000000    -4.569000000    -0.746000000
H     2.120000000    -4.744000000    -0.603000000
H     1.131000000    -4.327000000    -1.671000000
O    -4.528000000     1.074000000    -2.686000000
H    -5.352000000     0.611000000    -2.531000000
H    -4.717000000     1.983000000    -2.456000000
O     6.633000000     0.066000000     4.517000000
H     5.787000000     0.502000000     4.417000000
H     6.590000000    -0.346000000     5.380000000
O     4.428000000     1.363000000     3.949000000
H     3.578000000     1.065000000     4.273000000
H     4.243000000     1.712000000     3.077000000
O     4.845000000     3.187000000    -0.070000000
H     4.575000000     3.886000000    -0.666000000
H     4.674000000     2.380000000    -0.555000000
O     5.420000000     0.873000000    -3.422000000
H     4.571000000     1.233000000    -3.166000000
H     6.034000000     1.596000000    -3.297000000
O    -0.150000000    -7.559000000    -1.102000000
H     0.571000000    -7.815000000    -0.527000000
H    -0.186000000    -6.605000000    -1.032000000
O    -0.158000000    -2.257000000    -4.443000000
H     0.784000000    -2.190000000    -4.286000000
H    -0.398000000    -3.118000000    -4.101000000
O     1.485000000     1.326000000     4.439000000
H     1.651000000     1.367000000     3.497000000
H     0.672000000     0.825000000     4.517000000
O     3.422000000    -2.392000000     4.451000000
H     3.877000000    -3.078000000     4.938000000
H     3.718000000    -2.502000000     3.548000000
O    -0.539000000    -0.317000000     4.225000000
H    -0.420000000    -1.253000000     4.389000000
H    -1.035000000    -0.279000000     3.407000000
O     6.061000000     3.681000000     5.159000000
H     5.682000000     2.939000000     4.687000000
H     6.015000000     4.408000000     4.539000000
