158
-3020.91043
C    -0.964000000     1.130000000     0.240000000
H    -1.442000000     2.096000000     0.381000000
C     0.213000000     0.888000000     0.984000000
H     0.401000000     1.562000000     1.815000000
C     1.039000000    -0.213000000     0.639000000
H     1.852000000    -0.380000000     1.286000000
C     0.659000000    -1.051000000    -0.343000000
H     1.216000000    -1.945000000    -0.612000000
C    -0.512000000    -0.844000000    -1.039000000
H    -0.691000000    -1.597000000    -1.802000000
C    -1.341000000     0.262000000    -0.793000000
C    -2.486000000     0.449000000    -1.770000000
O    -2.709000000    -0.458000000    -2.565000000
O    -3.260000000     1.394000000    -1.580000000
O    -0.794000000    -4.505000000     2.095000000
H    -1.700000000    -4.533000000     1.787000000
H    -0.275000000    -4.784000000     1.341000000
O     3.397000000     0.609000000     5.628000000
H     3.809000000     1.468000000     5.530000000
H     2.717000000     0.744000000     6.289000000
O     5.305000000     2.370000000    -1.091000000
H     4.796000000     2.729000000    -0.364000000
H     5.129000000     2.961000000    -1.823000000
O    -3.123000000     4.121000000    -4.321000000
H    -3.136000000     4.764000000    -5.029000000
H    -3.767000000     4.446000000    -3.691000000
O     2.108000000    -1.440000000    -3.968000000
H     1.185000000    -1.396000000    -4.218000000
H     2.160000000    -0.935000000    -3.157000000
O     3.364000000    -3.397000000     5.957000000
H     2.446000000    -3.188000000     5.785000000
H     3.623000000    -2.785000000     6.647000000
O     1.079000000     4.192000000    -0.086000000
H     0.192000000     4.515000000    -0.244000000
H     1.208000000     3.513000000    -0.748000000
O    -1.742000000    -3.229000000    -4.695000000
H    -2.487000000    -3.221000000    -4.095000000
H    -2.107000000    -2.952000000    -5.535000000
O    -0.571000000    -0.827000000    -4.844000000
H    -1.023000000    -1.670000000    -4.888000000
H    -1.243000000    -0.210000000    -4.553000000
O    -5.957000000     3.638000000     0.895000000
H    -6.645000000     3.009000000     1.113000000
H    -6.295000000     4.479000000     1.202000000
O    -0.351000000    -5.489000000    -4.245000000
H     0.291000000    -5.433000000    -4.953000000
H    -0.957000000    -4.768000000    -4.415000000
O    -5.226000000     0.019000000     1.386000000
H    -4.877000000     0.727000000     0.846000000
H    -5.285000000     0.394000000     2.265000000
O    -1.437000000     3.003000000     2.988000000
H    -0.609000000     2.595000000     3.243000000
H    -2.095000000     2.324000000     3.140000000
O     1.379000000     5.584000000     3.148000000
H     1.612000000     5.182000000     3.985000000
H     0.983000000     4.874000000     2.643000000
O     6.429000000    -1.908000000     1.686000000
H     6.283000000    -2.100000000     0.760000000
H     5.661000000    -1.400000000     1.949000000
O     1.365000000     0.576000000    -6.315000000
H     0.825000000    -0.017000000    -5.793000000
H     2.164000000     0.079000000    -6.491000000
O     0.420000000    -4.772000000     4.489000000
H     0.081000000    -4.855000000     3.598000000
H     0.673000000    -3.852000000     4.564000000
O    -3.342000000     0.939000000     3.961000000
H    -2.552000000     0.428000000     4.133000000
H    -3.803000000     0.959000000     4.799000000
O     0.486000000    -5.793000000     0.157000000
H     0.885000000    -6.268000000     0.886000000
H    -0.019000000    -6.456000000    -0.313000000
O    -2.912000000     1.253000000    -7.330000000
H    -2.649000000     1.243000000    -6.409000000
H    -3.730000000     1.749000000    -7.340000000
O    -3.212000000     7.234000000     0.632000000
H    -3.208000000     7.690000000     1.473000000
H    -2.591000000     6.514000000     0.746000000
O    -6.226000000     5.119000000    -2.965000000
H    -6.964000000     5.038000000    -3.570000000
H    -6.221000000     4.292000000    -2.482000000
O    -1.659000000     6.526000000    -2.359000000
H    -1.952000000     5.659000000    -2.078000000
H    -1.434000000     6.978000000    -1.546000000
O     4.045000000    -1.718000000     0.374000000
H     3.712000000    -1.959000000     1.239000000
H     4.071000000    -2.543000000    -0.110000000
O    -2.206000000    -1.435000000     1.996000000
H    -1.440000000    -1.630000000     1.457000000
H    -2.225000000    -0.479000000     2.048000000
O     3.760000000    -3.352000000    -2.490000000
H     3.389000000    -2.656000000    -3.032000000
H     3.535000000    -4.160000000    -2.950000000
O    -3.192000000    -4.949000000    -1.106000000
H    -4.142000000    -4.871000000    -1.188000000
H    -2.846000000    -4.233000000    -1.638000000
O    -5.083000000    -1.311000000    -0.957000000
H    -5.238000000    -0.883000000    -0.115000000
H    -4.402000000    -0.782000000    -1.373000000
O     3.267000000    -4.403000000     0.056000000
H     2.350000000    -4.668000000    -0.025000000
H     3.534000000    -4.189000000    -0.837000000
O    -5.804000000     2.652000000    -1.629000000
H    -5.025000000     2.096000000    -1.646000000
H    -5.863000000     2.954000000    -0.723000000
O     3.686000000     0.076000000    -1.764000000
H     3.863000000    -0.359000000    -0.930000000
H     4.439000000     0.651000000    -1.899000000
O     3.115000000    -2.010000000     3.265000000
H     2.162000000    -2.064000000     3.202000000
H     3.276000000    -1.250000000     3.823000000
O     0.652000000    -2.146000000     4.649000000
H    -0.230000000    -1.787000000     4.556000000
H     1.030000000    -1.667000000     5.386000000
O    -7.658000000    -1.008000000    -1.160000000
H    -7.853000000    -0.536000000    -1.970000000
H    -6.706000000    -1.102000000    -1.160000000
O    -1.059000000    -6.661000000    -1.824000000
H    -0.869000000    -6.007000000    -2.496000000
H    -1.629000000    -6.208000000    -1.203000000
O     1.528000000     1.915000000    -1.591000000
H     2.323000000     1.691000000    -2.076000000
H     1.305000000     1.115000000    -1.115000000
O    -8.568000000     2.581000000    -2.406000000
H    -8.548000000     3.228000000    -3.111000000
H    -7.680000000     2.589000000    -2.048000000
O    -3.682000000    -2.893000000    -2.899000000
H    -3.393000000    -1.991000000    -2.762000000
H    -4.637000000    -2.847000000    -2.866000000
O     0.461000000     1.526000000     4.179000000
H    -0.085000000     0.816000000     4.516000000
H     1.345000000     1.308000000     4.472000000
O    -0.236000000     4.266000000    -3.807000000
H     0.001000000     5.130000000    -3.470000000
H    -1.190000000     4.291000000    -3.882000000
O    -1.379000000     3.798000000     5.924000000
H    -1.697000000     4.700000000     5.954000000
H    -1.519000000     3.525000000     5.017000000
O    -1.279000000    -0.192000000     5.495000000
H    -1.119000000     0.300000000     6.300000000
H    -1.976000000    -0.807000000     5.725000000
O    -2.916000000     4.205000000    -1.196000000
H    -3.802000000     4.390000000    -0.886000000
H    -2.922000000     3.268000000    -1.393000000
O    -4.484000000    -2.882000000     1.770000000
H    -5.114000000    -2.237000000     1.447000000
H    -3.660000000    -2.399000000     1.836000000
O    -1.511000000     5.043000000     0.903000000
H    -1.621000000     4.319000000     1.519000000
H    -2.128000000     4.851000000     0.196000000
O    -6.264000000     1.768000000    -5.089000000
H    -5.936000000     2.146000000    -5.905000000
H    -5.617000000     2.022000000    -4.430000000
O    -2.628000000     1.592000000    -4.689000000
H    -2.826000000     2.469000000    -4.360000000
H    -3.005000000     1.001000000    -4.038000000
O     3.373000000     3.653000000     0.905000000
H     2.598000000     4.065000000     0.523000000
H     3.077000000     2.781000000     1.167000000
