158
-3049.53946
C     1.013000000    -0.995000000     0.315000000
H     1.678000000    -1.852000000     0.381000000
C    -0.192000000    -1.262000000    -0.353000000
H    -0.513000000    -2.229000000    -0.731000000
C    -1.056000000    -0.228000000    -0.621000000
H    -1.955000000    -0.416000000    -1.207000000
C    -0.782000000     1.077000000    -0.082000000
H    -1.513000000     1.864000000    -0.246000000
C     0.350000000     1.224000000     0.718000000
H     0.535000000     2.168000000     1.223000000
C     1.357000000     0.259000000     0.871000000
C     2.710000000     0.563000000     1.445000000
O     3.634000000    -0.234000000     1.394000000
O     2.859000000     1.572000000     2.134000000
O    -6.049000000    -2.656000000    -1.165000000
H    -6.825000000    -2.347000000    -0.697000000
H    -6.339000000    -2.752000000    -2.072000000
O    -1.231000000    -4.567000000     2.018000000
H    -1.132000000    -3.621000000     2.125000000
H    -1.019000000    -4.728000000     1.099000000
O    -2.917000000     5.425000000     1.098000000
H    -2.472000000     5.004000000     1.834000000
H    -3.808000000     5.580000000     1.414000000
O    -3.366000000    -4.999000000    -3.657000000
H    -3.436000000    -4.054000000    -3.525000000
H    -4.257000000    -5.325000000    -3.534000000
O     2.803000000     3.390000000    -0.921000000
H     2.642000000     2.506000000    -1.252000000
H     3.050000000     3.894000000    -1.697000000
O     0.609000000    -3.623000000    -3.107000000
H     0.852000000    -4.252000000    -3.787000000
H     0.197000000    -4.154000000    -2.426000000
O    -2.586000000     1.873000000     3.402000000
H    -3.011000000     1.932000000     2.546000000
H    -1.679000000     2.131000000     3.238000000
O    -6.041000000    -0.008000000     2.452000000
H    -6.610000000    -0.538000000     1.895000000
H    -5.557000000    -0.646000000     2.977000000
O     0.573000000     0.210000000    -6.110000000
H    -0.364000000     0.050000000    -5.995000000
H     0.971000000    -0.105000000    -5.298000000
O     8.804000000     1.996000000     1.550000000
H     8.816000000     2.152000000     2.494000000
H     7.935000000     1.632000000     1.379000000
O    -2.435000000     4.497000000     3.801000000
H    -2.753000000     3.594000000     3.800000000
H    -2.617000000     4.813000000     4.686000000
O    -1.623000000    -1.778000000     2.406000000
H    -1.458000000    -1.427000000     1.531000000
H    -2.508000000    -1.482000000     2.620000000
O     1.308000000     5.146000000     0.532000000
H     1.454000000     4.338000000     0.039000000
H     0.934000000     4.855000000     1.364000000
O     1.707000000    -3.557000000     3.302000000
H     2.636000000    -3.339000000     3.382000000
H     1.645000000    -4.459000000     3.616000000
O     1.620000000     1.177000000    -2.327000000
H     1.535000000     0.401000000    -2.880000000
H     1.045000000     1.004000000    -1.582000000
O    -2.055000000    -0.040000000    -5.149000000
H    -2.526000000    -0.412000000    -5.895000000
H    -2.724000000     0.439000000    -4.659000000
O     4.682000000    -0.401000000    -1.127000000
H     5.065000000     0.468000000    -1.006000000
H     4.139000000    -0.533000000    -0.350000000
O    -5.963000000     3.628000000     0.701000000
H    -5.099000000     4.038000000     0.663000000
H    -5.936000000     2.952000000     0.024000000
O     4.523000000     3.700000000     1.360000000
H     3.948000000     2.975000000     1.607000000
H     4.031000000     4.179000000     0.694000000
O     7.091000000    -2.275000000     2.732000000
H     7.211000000    -2.154000000     1.790000000
H     7.232000000    -1.404000000     3.105000000
O     4.157000000    -2.207000000     2.936000000
H     3.886000000    -1.341000000     2.629000000
H     5.111000000    -2.156000000     2.984000000
O    -3.388000000    -2.565000000    -0.517000000
H    -3.001000000    -1.981000000    -1.170000000
H    -4.330000000    -2.513000000    -0.677000000
O    -7.512000000    -0.202000000    -2.504000000
H    -8.023000000    -0.592000000    -3.214000000
H    -8.151000000    -0.048000000    -1.807000000
O    -4.036000000     1.529000000     1.200000000
H    -4.170000000     1.394000000     0.261000000
H    -4.838000000     1.201000000     1.606000000
O    -1.583000000     4.775000000    -3.580000000
H    -1.044000000     5.475000000    -3.210000000
H    -2.332000000     4.711000000    -2.988000000
O     5.454000000    -3.911000000    -2.122000000
H     5.433000000    -4.584000000    -2.803000000
H     4.775000000    -4.176000000    -1.502000000
O     1.988000000     5.956000000     4.961000000
H     2.495000000     5.278000000     4.516000000
H     2.490000000     6.760000000     4.823000000
O    -1.644000000    -4.664000000    -0.733000000
H    -2.314000000    -3.991000000    -0.615000000
H    -2.110000000    -5.398000000    -1.134000000
O     0.232000000     4.252000000     2.938000000
H    -0.560000000     4.605000000     3.344000000
H     0.690000000     3.809000000     3.652000000
O     7.259000000    -2.830000000    -0.212000000
H     6.475000000    -3.114000000    -0.682000000
H     7.470000000    -1.977000000    -0.592000000
O     6.353000000     4.844000000     2.787000000
H     6.090000000     5.761000000     2.873000000
H     5.603000000     4.418000000     2.373000000
O    -5.160000000     1.642000000    -1.305000000
H    -5.755000000     0.917000000    -1.109000000
H    -5.154000000     1.695000000    -2.261000000
O     4.791000000    -1.660000000    -3.475000000
H     4.912000000    -2.548000000    -3.139000000
H     4.909000000    -1.097000000    -2.710000000
O     0.277000000     3.433000000    -5.080000000
H    -0.183000000     4.215000000    -4.773000000
H     0.293000000     2.852000000    -4.320000000
O     6.205000000     1.267000000     1.190000000
H     5.926000000     2.128000000     0.879000000
H     5.389000000     0.792000000     1.347000000
O     0.796000000    -6.159000000     2.756000000
H     1.189000000    -5.942000000     1.910000000
H    -0.067000000    -5.746000000     2.731000000
O     1.327000000     3.786000000     6.917000000
H     1.302000000     3.145000000     6.206000000
H     1.542000000     4.613000000     6.486000000
O     2.541000000    -0.477000000     5.838000000
H     1.726000000    -0.793000000     5.448000000
H     2.818000000    -1.185000000     6.420000000
O    -1.982000000    -2.238000000    -3.374000000
H    -1.846000000    -1.544000000    -4.018000000
H    -1.181000000    -2.761000000    -3.413000000
O     4.214000000    -3.729000000     0.644000000
H     3.803000000    -3.330000000     1.411000000
H     5.026000000    -3.237000000     0.524000000
O    -4.996000000     0.568000000    -4.091000000
H    -5.390000000     0.674000000    -4.957000000
H    -5.700000000     0.212000000    -3.550000000
O     6.955000000     0.278000000     4.074000000
H     6.019000000     0.468000000     4.010000000
H     7.362000000     1.130000000     4.231000000
O     5.054000000     3.287000000     5.707000000
H     4.635000000     2.544000000     5.272000000
H     5.662000000     2.889000000     6.330000000
O     2.336000000    -5.895000000     0.526000000
H     3.181000000    -6.291000000     0.317000000
H     2.510000000    -4.954000000     0.542000000
O     1.998000000    -0.976000000    -4.028000000
H     2.885000000    -1.138000000    -3.707000000
H     1.455000000    -1.609000000    -3.559000000
O     1.687000000     2.325000000     4.483000000
H     2.289000000     2.266000000     3.742000000
H     1.363000000     1.431000000     4.600000000
O     4.430000000     0.852000000     4.352000000
H     3.706000000     0.336000000     4.708000000
H     4.095000000     1.194000000     3.523000000
O     0.380000000    -1.454000000     4.380000000
H     0.954000000    -2.080000000     3.939000000
H    -0.347000000    -1.325000000     3.771000000
