158
-3037.91567
C     1.323000000    -0.611000000    -0.142000000
H     2.263000000    -1.154000000    -0.078000000
C     0.125000000    -1.218000000    -0.515000000
H     0.129000000    -2.217000000    -0.943000000
C    -1.087000000    -0.563000000    -0.341000000
H    -2.001000000    -1.029000000    -0.641000000
C    -1.032000000     0.764000000     0.159000000
H    -1.936000000     1.312000000     0.409000000
C     0.181000000     1.359000000     0.533000000
H     0.301000000     2.363000000     0.933000000
C     1.340000000     0.660000000     0.437000000
C     2.617000000     1.321000000     0.754000000
O     3.676000000     0.872000000     0.344000000
O     2.528000000     2.391000000     1.347000000
O    -6.897000000    -1.426000000    -1.664000000
H    -7.232000000    -1.122000000    -0.821000000
H    -6.874000000    -0.640000000    -2.210000000
O     1.759000000    -3.709000000     4.879000000
H     2.414000000    -4.401000000     4.976000000
H     1.608000000    -3.653000000     3.936000000
O    -4.647000000     4.107000000     1.765000000
H    -4.050000000     3.487000000     2.183000000
H    -4.602000000     4.890000000     2.315000000
O     1.336000000     4.572000000    -1.321000000
H     0.988000000     4.085000000    -2.067000000
H     1.646000000     5.396000000    -1.696000000
O    -0.456000000    -4.636000000    -2.986000000
H    -0.150000000    -5.238000000    -3.665000000
H    -1.007000000    -5.175000000    -2.419000000
O    -3.411000000     1.926000000     2.523000000
H    -3.900000000     1.199000000     2.137000000
H    -2.721000000     1.504000000     3.036000000
O    -0.714000000     0.276000000    -5.440000000
H    -1.603000000    -0.056000000    -5.319000000
H    -0.174000000    -0.269000000    -4.867000000
O     8.304000000     2.088000000     1.744000000
H     8.291000000     2.988000000     2.068000000
H     7.616000000     2.062000000     1.079000000
O    -2.891000000     3.768000000     4.388000000
H    -3.158000000     3.082000000     3.776000000
H    -3.714000000     4.133000000     4.713000000
O    -3.762000000     3.595000000    -0.701000000
H    -3.777000000     3.701000000     0.250000000
H    -4.491000000     4.130000000    -1.014000000
O    -2.700000000    -5.002000000    -0.850000000
H    -2.252000000    -4.177000000    -1.033000000
H    -3.629000000    -4.774000000    -0.841000000
O    -1.095000000     4.584000000     0.154000000
H    -0.247000000     4.757000000    -0.256000000
H    -0.927000000     4.666000000     1.093000000
O     2.494000000    -1.177000000     3.052000000
H     3.336000000    -1.246000000     2.601000000
H     1.941000000    -1.834000000     2.630000000
O     1.073000000     1.707000000    -2.823000000
H     0.226000000     1.772000000    -2.381000000
H     1.277000000     0.772000000    -2.813000000
O    -6.428000000    -5.034000000     1.278000000
H    -6.438000000    -4.231000000     1.798000000
H    -7.292000000    -5.062000000     0.865000000
O    -3.578000000    -0.076000000    -4.504000000
H    -3.683000000     0.140000000    -5.430000000
H    -4.263000000     0.426000000    -4.062000000
O     4.393000000     1.013000000    -2.269000000
H     4.358000000     1.969000000    -2.248000000
H     4.134000000     0.744000000    -1.388000000
O    -7.063000000     1.699000000     2.485000000
H    -7.102000000     2.222000000     1.685000000
H    -6.431000000     1.007000000     2.289000000
O     3.203000000     4.710000000     0.643000000
H     2.981000000     3.818000000     0.909000000
H     2.713000000     4.846000000    -0.168000000
O    -1.498000000    -3.779000000    -5.812000000
H    -2.102000000    -4.504000000    -5.976000000
H    -1.013000000    -4.045000000    -5.030000000
O     4.833000000    -1.166000000     1.716000000
H     4.513000000    -0.382000000     1.270000000
H     5.312000000    -0.831000000     2.474000000
O    -1.852000000    -1.484000000     5.736000000
H    -1.695000000    -1.096000000     4.875000000
H    -2.669000000    -1.973000000     5.633000000
O    -4.773000000    -3.071000000    -1.284000000
H    -4.097000000    -2.687000000    -1.843000000
H    -5.467000000    -2.412000000    -1.260000000
O    -5.162000000     0.019000000     1.182000000
H    -5.507000000     0.740000000     0.655000000
H    -5.752000000    -0.713000000     1.001000000
O    -1.786000000     3.002000000    -2.581000000
H    -2.207000000     3.610000000    -1.973000000
H    -2.226000000     2.166000000    -2.426000000
O     5.066000000    -3.359000000    -2.855000000
H     5.443000000    -4.228000000    -2.995000000
H     4.710000000    -3.393000000    -1.967000000
O    -0.646000000     4.929000000     2.772000000
H     0.046000000     4.278000000     2.889000000
H    -1.378000000     4.598000000     3.292000000
O     7.169000000    -0.643000000    -0.383000000
H     7.790000000    -0.395000000    -1.068000000
H     6.336000000    -0.267000000    -0.666000000
O     5.517000000     5.419000000     2.060000000
H     5.164000000     6.010000000     2.725000000
H     4.797000000     5.297000000     1.442000000
O    -5.893000000     1.823000000    -0.483000000
H    -6.422000000     1.554000000    -1.234000000
H    -5.241000000     2.420000000    -0.851000000
O     3.276000000    -1.281000000    -3.150000000
H     4.103000000    -1.759000000    -3.206000000
H     3.518000000    -0.424000000    -2.798000000
O     5.922000000     2.516000000     0.303000000
H     5.137000000     2.096000000     0.655000000
H     5.706000000     2.697000000    -0.612000000
O    -5.284000000     1.961000000    -4.545000000
H    -5.706000000     2.005000000    -5.403000000
H    -4.772000000     2.767000000    -4.488000000
O    -0.621000000    -6.523000000     0.493000000
H    -0.011000000    -6.644000000    -0.234000000
H    -1.403000000    -6.145000000     0.089000000
O     1.926000000     4.303000000     6.007000000
H     1.858000000     3.844000000     5.169000000
H     1.844000000     5.229000000     5.780000000
O     1.402000000     0.583000000     4.487000000
H     1.841000000    -0.126000000     4.016000000
H     1.306000000     0.254000000     5.380000000
O    -2.914000000    -2.413000000    -3.334000000
H    -3.113000000    -1.560000000    -3.719000000
H    -2.825000000    -3.000000000    -4.085000000
O     5.983000000    -3.650000000     1.426000000
H     5.660000000    -2.750000000     1.473000000
H     6.809000000    -3.583000000     0.947000000
O     1.391000000    -3.923000000     2.043000000
H     2.268000000    -4.279000000     1.901000000
H     0.803000000    -4.571000000     1.654000000
O     6.433000000     0.243000000     3.334000000
H     6.030000000     1.096000000     3.174000000
H     7.323000000     0.331000000     2.994000000
O     4.754000000     4.248000000     5.449000000
H     5.697000000     4.085000000     5.421000000
H     4.367000000     3.494000000     5.005000000
O     4.703000000     3.781000000    -2.139000000
H     4.135000000     4.242000000    -1.523000000
H     5.077000000     4.474000000    -2.684000000
O     3.780000000    -5.414000000     1.239000000
H     4.636000000    -5.062000000     1.484000000
H     3.829000000    -5.526000000     0.290000000
O     0.660000000    -1.362000000    -3.829000000
H     1.599000000    -1.481000000    -3.684000000
H     0.265000000    -2.179000000    -3.527000000
O     1.415000000     3.214000000     3.495000000
H     1.974000000     3.074000000     2.731000000
H     1.505000000     2.411000000     4.009000000
O     4.653000000     2.371000000     2.953000000
H     4.052000000     2.236000000     2.220000000
H     5.062000000     3.218000000     2.773000000
O    -0.993000000     0.663000000     3.361000000
H    -0.953000000     0.665000000     2.405000000
H    -0.081000000     0.581000000     3.639000000
O    -6.504000000    -2.836000000     2.707000000
H    -6.825000000    -2.902000000     3.606000000
H    -5.675000000    -2.364000000     2.783000000
