158
-3033.48567
C    -0.279000000    -0.395000000    -1.402000000
H    -0.666000000    -0.633000000    -2.389000000
C    -0.779000000    -1.040000000    -0.320000000
H    -1.507000000    -1.847000000    -0.354000000
C    -0.362000000    -0.647000000     0.972000000
H    -0.757000000    -1.232000000     1.762000000
C     0.459000000     0.481000000     1.105000000
H     0.778000000     0.709000000     2.119000000
C     0.982000000     1.117000000     0.014000000
H     1.502000000     2.066000000     0.124000000
C     0.636000000     0.659000000    -1.261000000
C     0.955000000     1.516000000    -2.421000000
O     0.162000000     1.624000000    -3.356000000
O     2.039000000     2.042000000    -2.471000000
O     0.887000000    -0.221000000    -5.287000000
H     0.552000000     0.423000000    -4.662000000
H     1.286000000     0.303000000    -5.981000000
O    -0.896000000    -2.113000000    -4.786000000
H    -0.220000000    -1.456000000    -4.950000000
H    -0.736000000    -2.791000000    -5.443000000
O    -1.296000000     2.206000000    -5.400000000
H    -1.465000000     3.113000000    -5.142000000
H    -0.943000000     1.795000000    -4.611000000
O     1.838000000     2.748000000    -6.304000000
H     1.751000000     2.475000000    -5.390000000
H     2.289000000     3.591000000    -6.260000000
O     2.342000000    -4.777000000     0.905000000
H     2.191000000    -4.753000000     1.850000000
H     1.500000000    -5.038000000     0.534000000
O    -2.790000000     0.511000000     2.837000000
H    -3.576000000     0.312000000     3.347000000
H    -3.087000000     1.129000000     2.170000000
O    -5.226000000     0.336000000     4.830000000
H    -4.532000000     0.138000000     5.458000000
H    -5.743000000    -0.468000000     4.783000000
O     3.481000000    -2.286000000    -3.000000000
H     3.534000000    -1.420000000    -3.404000000
H     2.991000000    -2.142000000    -2.190000000
O    -1.295000000    -4.716000000     1.835000000
H    -0.965000000    -5.168000000     1.058000000
H    -0.516000000    -4.331000000     2.237000000
O     3.521000000     3.789000000     4.668000000
H     3.813000000     3.331000000     3.880000000
H     3.717000000     3.184000000     5.383000000
O    -2.386000000     3.485000000     1.152000000
H    -2.009000000     4.355000000     1.015000000
H    -2.160000000     2.999000000     0.359000000
O    -0.310000000     0.917000000     4.594000000
H    -0.813000000     1.731000000     4.617000000
H    -0.496000000     0.544000000     3.732000000
O    -3.656000000    -1.806000000    -4.019000000
H    -3.690000000    -2.721000000    -3.740000000
H    -2.760000000    -1.684000000    -4.332000000
O     0.720000000    -3.501000000     3.303000000
H     1.389000000    -3.607000000     3.980000000
H     0.020000000    -3.011000000     3.734000000
O     4.061000000     0.771000000    -3.687000000
H     4.683000000     1.398000000    -4.058000000
H     3.323000000     1.307000000    -3.399000000
O    -1.016000000     5.513000000     0.375000000
H    -0.122000000     5.760000000     0.139000000
H    -1.571000000     6.062000000    -0.178000000
O    -4.361000000     2.035000000    -5.902000000
H    -4.066000000     2.941000000    -5.810000000
H    -3.827000000     1.545000000    -5.277000000
O     5.759000000     3.673000000    -1.563000000
H     6.060000000     2.847000000    -1.184000000
H     6.235000000     4.347000000    -1.078000000
O     2.056000000    -4.844000000    -3.265000000
H     2.679000000    -4.118000000    -3.221000000
H     1.215000000    -4.451000000    -3.030000000
O    -1.829000000    -0.245000000    -8.014000000
H    -1.211000000    -0.960000000    -8.164000000
H    -1.763000000    -0.064000000    -7.076000000
O     1.514000000     6.077000000    -0.260000000
H     1.857000000     5.333000000    -0.755000000
H     1.865000000     6.846000000    -0.711000000
O    -1.003000000    -3.759000000    -2.354000000
H    -1.110000000    -3.125000000    -3.063000000
H    -1.820000000    -4.257000000    -2.353000000
O     3.833000000     4.584000000    -6.125000000
H     4.376000000     4.289000000    -5.395000000
H     4.042000000     5.513000000    -6.219000000
O     0.687000000     0.260000000     6.993000000
H     0.271000000     0.536000000     6.176000000
H     1.423000000    -0.286000000     6.715000000
O    -5.063000000     0.001000000     0.706000000
H    -5.740000000     0.230000000     0.069000000
H    -4.436000000    -0.526000000     0.211000000
O     2.014000000    -2.714000000    -6.472000000
H     2.110000000    -2.243000000    -5.644000000
H     2.002000000    -3.638000000    -6.222000000
O    -0.444000000     3.254000000    -7.773000000
H    -1.048000000     2.925000000    -7.107000000
H     0.421000000     2.978000000    -7.469000000
O     3.973000000    -0.884000000     1.153000000
H     4.430000000    -0.453000000     0.430000000
H     3.374000000    -1.496000000     0.726000000
O     0.657000000     4.816000000    -3.489000000
H     1.511000000     4.970000000    -3.086000000
H     0.491000000     3.884000000    -3.351000000
O     2.070000000    -2.211000000    -0.710000000
H     1.977000000    -3.066000000    -0.290000000
H     1.445000000    -1.649000000    -0.252000000
O    -3.076000000    -4.863000000     4.717000000
H    -3.517000000    -5.122000000     3.908000000
H    -2.294000000    -5.413000000     4.751000000
O    -1.744000000    -2.322000000     4.491000000
H    -2.114000000    -3.094000000     4.917000000
H    -2.399000000    -2.071000000     3.840000000
O    -0.260000000    -5.466000000    -0.396000000
H    -0.447000000    -4.794000000    -1.052000000
H    -0.551000000    -6.283000000    -0.801000000
O    -2.613000000    -0.005000000     5.882000000
H    -2.108000000    -0.666000000     5.409000000
H    -2.135000000     0.812000000     5.736000000
O     3.066000000     4.165000000    -1.347000000
H     2.592000000     3.396000000    -1.662000000
H     3.960000000     4.043000000    -1.665000000
O    -4.008000000    -4.524000000     0.559000000
H    -4.054000000    -5.340000000     0.060000000
H    -3.131000000    -4.528000000     0.943000000
O     4.761000000    -0.181000000    -6.256000000
H     5.317000000     0.585000000    -6.394000000
H     3.958000000     0.171000000    -5.872000000
O    -1.993000000     2.490000000    -1.545000000
H    -1.374000000     1.964000000    -2.052000000
H    -2.825000000     2.025000000    -1.626000000
O    -3.844000000     0.359000000    -2.219000000
H    -3.557000000    -0.378000000    -2.758000000
H    -4.798000000     0.278000000    -2.190000000
O    -4.035000000    -2.082000000     2.775000000
H    -4.458000000    -2.464000000     2.006000000
H    -4.046000000    -1.139000000     2.612000000
O     2.681000000    -1.590000000     5.735000000
H     3.375000000    -1.843000000     5.126000000
H     1.974000000    -2.213000000     5.566000000
O     5.568000000     3.254000000    -4.504000000
H     6.386000000     3.276000000    -4.999000000
H     5.822000000     3.485000000    -3.610000000
O    -3.748000000    -4.871000000    -2.902000000
H    -4.578000000    -4.901000000    -2.427000000
H    -3.604000000    -5.772000000    -3.191000000
O     5.431000000     0.187000000    -1.131000000
H     6.184000000     0.777000000    -1.164000000
H     4.968000000     0.344000000    -1.954000000
O     4.848000000     1.395000000     2.639000000
H     4.304000000     2.021000000     2.161000000
H     4.611000000     0.543000000     2.272000000
O    -2.918000000     4.732000000    -2.527000000
H    -3.665000000     4.651000000    -1.935000000
H    -2.336000000     4.015000000    -2.278000000
O     1.250000000     3.684000000     6.272000000
H     0.313000000     3.756000000     6.088000000
H     1.668000000     3.742000000     5.413000000
O     3.340000000     3.601000000     1.552000000
H     4.063000000     4.155000000     1.258000000
H     2.646000000     3.753000000     0.911000000
