158
-3027.57267
C    -0.197000000    -0.752000000    -1.282000000
H    -0.213000000    -1.376000000    -2.172000000
C    -0.167000000    -1.322000000     0.008000000
H    -0.196000000    -2.401000000     0.142000000
C     0.069000000    -0.507000000     1.074000000
H     0.168000000    -0.867000000     2.057000000
C     0.075000000     0.858000000     0.944000000
H     0.247000000     1.459000000     1.834000000
C    -0.125000000     1.551000000    -0.277000000
H    -0.125000000     2.627000000    -0.427000000
C    -0.177000000     0.701000000    -1.406000000
C    -0.080000000     1.291000000    -2.746000000
O    -0.358000000     0.627000000    -3.774000000
O     0.590000000     2.291000000    -2.789000000
O     1.896000000    -0.297000000    -4.845000000
H     0.982000000    -0.261000000    -4.564000000
H     2.184000000     0.616000000    -4.840000000
O     4.641000000     0.091000000     3.254000000
H     4.166000000     0.867000000     3.552000000
H     4.003000000    -0.396000000     2.733000000
O     1.344000000    -2.449000000     5.902000000
H     0.410000000    -2.656000000     5.932000000
H     1.748000000    -3.081000000     6.498000000
O    -2.003000000    -1.296000000    -6.228000000
H    -2.748000000    -1.852000000    -6.456000000
H    -2.325000000    -0.746000000    -5.514000000
O    -1.124000000     1.722000000    -6.165000000
H    -0.865000000     1.533000000    -5.263000000
H    -0.771000000     0.992000000    -6.674000000
O     2.173000000    -3.715000000     3.635000000
H     1.262000000    -4.004000000     3.575000000
H     2.196000000    -3.156000000     4.411000000
O    -4.112000000     1.607000000     3.892000000
H    -4.957000000     2.054000000     3.947000000
H    -4.207000000     0.845000000     4.463000000
O    -1.600000000     4.411000000    -5.820000000
H    -1.404000000     4.383000000    -4.884000000
H    -1.560000000     3.496000000    -6.100000000
O     1.949000000    -3.292000000    -2.698000000
H     2.078000000    -3.627000000    -1.811000000
H     2.628000000    -2.626000000    -2.804000000
O     0.717000000     4.401000000     3.605000000
H     1.531000000     4.244000000     3.127000000
H     0.040000000     3.990000000     3.067000000
O    -2.198000000     6.152000000     0.908000000
H    -1.316000000     6.522000000     0.924000000
H    -2.257000000     5.708000000     0.062000000
O    -0.495000000     0.902000000     4.098000000
H    -0.667000000     1.733000000     3.655000000
H    -1.258000000     0.361000000     3.896000000
O    -2.922000000     0.092000000    -2.879000000
H    -2.050000000    -0.118000000    -3.214000000
H    -3.042000000    -0.501000000    -2.136000000
O    -0.261000000    -4.600000000     2.843000000
H    -0.992000000    -3.990000000     2.747000000
H    -0.004000000    -4.809000000     1.945000000
O     2.549000000     2.465000000    -4.697000000
H     1.793000000     2.453000000    -4.111000000
H     3.077000000     3.203000000    -4.392000000
O    -1.082000000     6.404000000    -1.703000000
H    -0.255000000     6.582000000    -1.256000000
H    -1.530000000     7.249000000    -1.723000000
O    -3.871000000     1.761000000    -6.676000000
H    -2.963000000     1.461000000    -6.677000000
H    -4.197000000     1.538000000    -5.804000000
O     1.620000000    -0.444000000     8.083000000
H     1.461000000    -1.068000000     7.375000000
H     2.101000000    -0.946000000     8.742000000
O     4.735000000     1.764000000    -2.012000000
H     5.370000000     1.716000000    -2.726000000
H     5.146000000     1.284000000    -1.293000000
O     1.715000000    -5.663000000    -4.387000000
H     1.716000000    -5.004000000    -3.692000000
H     0.965000000    -6.223000000    -4.184000000
O     3.892000000    -2.089000000    -4.917000000
H     3.648000000    -2.445000000    -5.771000000
H     3.208000000    -1.448000000    -4.721000000
O     1.466000000     6.165000000    -1.046000000
H     2.102000000     5.551000000    -0.679000000
H     1.457000000     5.968000000    -1.983000000
O    -2.269000000    -4.994000000    -4.348000000
H    -1.864000000    -4.713000000    -5.169000000
H    -2.843000000    -4.267000000    -4.104000000
O    -5.005000000     4.272000000    -1.640000000
H    -4.192000000     4.113000000    -1.159000000
H    -5.678000000     3.823000000    -1.127000000
O     1.626000000     3.312000000    -7.146000000
H     1.072000000     2.567000000    -7.381000000
H     1.980000000     3.084000000    -6.286000000
O    -3.316000000     0.906000000     1.105000000
H    -3.747000000     1.079000000     1.942000000
H    -2.406000000     1.167000000     1.245000000
O     0.887000000     0.289000000    -7.696000000
H     1.478000000    -0.354000000    -7.304000000
H     0.689000000    -0.064000000    -8.563000000
O     1.357000000     5.617000000    -3.570000000
H     0.925000000     5.994000000    -4.336000000
H     2.281000000     5.571000000    -3.815000000
O    -1.412000000     4.098000000    -3.116000000
H    -1.209000000     4.870000000    -2.588000000
H    -0.642000000     3.537000000    -3.024000000
O     0.284000000    -5.168000000     0.437000000
H    -0.300000000    -5.151000000    -0.321000000
H     1.089000000    -5.572000000     0.111000000
O    -2.338000000    -0.886000000     3.144000000
H    -1.582000000    -1.455000000     2.995000000
H    -3.078000000    -1.487000000     3.224000000
O    -1.326000000    -6.025000000    -1.579000000
H    -1.916000000    -5.906000000    -2.324000000
H    -0.765000000    -6.757000000    -1.833000000
O    -1.884000000     3.150000000     2.703000000
H    -2.696000000     2.844000000     3.107000000
H    -1.984000000     4.100000000     2.653000000
O     2.386000000     3.040000000    -1.124000000
H     1.606000000     3.004000000    -1.677000000
H     3.083000000     2.675000000    -1.669000000
O    -3.362000000    -5.353000000     0.208000000
H    -3.454000000    -6.239000000     0.557000000
H    -2.690000000    -5.431000000    -0.470000000
O    -2.633000000     3.788000000    -0.537000000
H    -2.472000000     3.078000000     0.084000000
H    -2.230000000     3.489000000    -1.352000000
O    -1.242000000    -3.383000000     5.516000000
H    -1.254000000    -4.338000000     5.448000000
H    -2.073000000    -3.162000000     5.937000000
O    -4.872000000     1.392000000    -4.026000000
H    -4.181000000     1.029000000    -3.472000000
H    -5.548000000     0.715000000    -4.040000000
O    -2.528000000    -3.219000000     1.614000000
H    -2.906000000    -3.954000000     1.132000000
H    -2.551000000    -2.489000000     0.995000000
O     1.852000000    -0.146000000     4.407000000
H     1.593000000    -0.837000000     5.017000000
H     1.032000000     0.134000000     4.000000000
O     4.174000000    -4.211000000     1.709000000
H     4.063000000    -5.136000000     1.929000000
H     3.559000000    -3.753000000     2.282000000
O     3.706000000    -2.506000000    -0.561000000
H     3.169000000    -1.724000000    -0.433000000
H     3.874000000    -2.829000000     0.325000000
O     2.923000000    -0.053000000     0.184000000
H     2.029000000    -0.208000000     0.491000000
H     3.050000000     0.890000000     0.286000000
O    -4.552000000    -0.961000000    -0.561000000
H    -4.131000000    -0.267000000    -0.054000000
H    -5.393000000    -0.588000000    -0.825000000
O     1.337000000     2.321000000     6.512000000
H     2.018000000     1.789000000     6.924000000
H     1.278000000     1.984000000     5.618000000
O    -4.631000000    -2.778000000     3.404000000
H    -3.986000000    -3.126000000     2.789000000
H    -4.534000000    -3.320000000     4.187000000
O     2.309000000     3.896000000     1.684000000
H     3.219000000     3.760000000     1.947000000
H     2.217000000     3.398000000     0.871000000
O     3.817000000     0.657000000     6.753000000
H     3.545000000     0.181000000     5.968000000
H     3.239000000     0.330000000     7.442000000
