158
-3039.60839
C    -0.878000000     0.264000000    -1.219000000
H    -1.465000000     0.268000000    -2.133000000
C     0.017000000    -0.834000000    -1.047000000
H     0.121000000    -1.623000000    -1.788000000
C     0.871000000    -0.850000000     0.053000000
H     1.539000000    -1.694000000     0.238000000
C     0.781000000     0.185000000     1.032000000
H     1.464000000     0.021000000     1.861000000
C    -0.108000000     1.173000000     0.841000000
H    -0.220000000     1.851000000     1.684000000
C    -0.983000000     1.296000000    -0.274000000
C    -2.051000000     2.297000000    -0.302000000
O    -2.720000000     2.336000000    -1.293000000
O    -2.353000000     3.063000000     0.624000000
O     5.119000000    -2.577000000     0.323000000
H     5.633000000    -2.332000000    -0.446000000
H     4.901000000    -1.744000000     0.742000000
O    -4.359000000     0.465000000    -1.796000000
H    -3.987000000     0.043000000    -2.570000000
H    -3.769000000     1.196000000    -1.614000000
O     1.680000000    -6.383000000    -0.296000000
H     1.472000000    -6.638000000     0.603000000
H     2.623000000    -6.529000000    -0.374000000
O    -4.904000000     4.125000000    -3.704000000
H    -4.065000000     4.197000000    -3.248000000
H    -5.481000000     3.688000000    -3.077000000
O    -4.546000000     5.264000000     4.830000000
H    -4.353000000     4.780000000     4.027000000
H    -4.484000000     4.609000000     5.525000000
O    -4.139000000    -0.297000000    -5.462000000
H    -4.173000000    -1.232000000    -5.259000000
H    -3.224000000    -0.054000000    -5.317000000
O     1.027000000    -2.600000000     2.702000000
H     1.620000000    -2.888000000     2.007000000
H     1.603000000    -2.398000000     3.439000000
O    -3.168000000    -2.212000000    -2.856000000
H    -4.112000000    -2.366000000    -2.887000000
H    -2.904000000    -2.522000000    -1.989000000
O     4.324000000    -6.863000000    -0.201000000
H     4.716000000    -6.172000000    -0.735000000
H     4.684000000    -7.675000000    -0.557000000
O    -3.934000000     4.731000000     2.174000000
H    -4.191000000     5.499000000     1.663000000
H    -3.312000000     4.268000000     1.613000000
O     4.011000000    -2.763000000    -3.639000000
H     3.923000000    -1.886000000    -3.264000000
H     4.840000000    -3.091000000    -3.288000000
O    -2.186000000    -0.796000000     1.418000000
H    -1.251000000    -0.699000000     1.236000000
H    -2.252000000    -1.617000000     1.905000000
O    -3.665000000     2.621000000     5.252000000
H    -3.145000000     2.185000000     4.577000000
H    -4.573000000     2.483000000     4.981000000
O    -4.765000000    -0.955000000     0.435000000
H    -4.737000000    -0.467000000    -0.389000000
H    -3.845000000    -1.075000000     0.672000000
O    -1.543000000    -3.399000000     2.607000000
H    -0.623000000    -3.155000000     2.708000000
H    -1.657000000    -4.151000000     3.187000000
O    -1.627000000     3.179000000    -3.717000000
H    -0.737000000     3.453000000    -3.494000000
H    -1.926000000     2.687000000    -2.953000000
O     6.680000000    -1.525000000    -1.409000000
H     7.271000000    -0.787000000    -1.258000000
H     6.300000000    -1.355000000    -2.271000000
O     1.011000000     1.246000000    -6.070000000
H     0.707000000     2.154000000    -6.058000000
H     1.684000000     1.229000000    -6.751000000
O     7.508000000    -3.308000000     1.458000000
H     7.296000000    -4.162000000     1.835000000
H     6.741000000    -3.081000000     0.932000000
O    -2.765000000    -3.817000000    -0.464000000
H    -2.238000000    -4.415000000    -0.995000000
H    -2.206000000    -3.605000000     0.284000000
O    -0.602000000    -5.568000000    -1.262000000
H     0.186000000    -5.672000000    -0.729000000
H    -0.297000000    -5.663000000    -2.164000000
O     1.243000000    -7.429000000     2.148000000
H     1.882000000    -7.084000000     2.770000000
H     0.493000000    -7.680000000     2.689000000
O     0.223000000     6.023000000    -0.448000000
H     0.076000000     5.272000000    -1.022000000
H    -0.165000000     5.766000000     0.388000000
O     1.887000000     3.871000000     1.917000000
H     1.042000000     4.284000000     1.740000000
H     2.317000000     4.460000000     2.537000000
O    -2.823000000     1.706000000     2.757000000
H    -2.580000000     2.313000000     2.057000000
H    -2.629000000     0.839000000     2.400000000
O    -1.821000000     0.755000000    -5.280000000
H    -1.947000000     1.474000000    -4.661000000
H    -0.899000000     0.516000000    -5.184000000
O     4.256000000    -0.710000000     2.236000000
H     4.204000000    -1.027000000     3.138000000
H     4.251000000     0.244000000     2.317000000
O    -2.794000000     5.339000000    -1.769000000
H    -2.562000000     4.414000000    -1.841000000
H    -3.581000000     5.347000000    -1.225000000
O    -1.445000000    -3.304000000    -4.615000000
H    -1.929000000    -2.925000000    -3.881000000
H    -0.535000000    -3.051000000    -4.457000000
O     0.487000000     3.644000000    -2.194000000
H     1.174000000     4.196000000    -2.568000000
H     0.926000000     2.815000000    -2.001000000
O     3.164000000    -3.995000000     1.515000000
H     2.996000000    -4.273000000     0.615000000
H     3.860000000    -3.343000000     1.439000000
O    -0.664000000     5.091000000     1.737000000
H    -0.860000000     4.942000000     2.662000000
H    -1.106000000     4.375000000     1.280000000
O     2.943000000     2.115000000     5.760000000
H     3.275000000     2.797000000     6.344000000
H     2.164000000     1.778000000     6.204000000
O     1.185000000    -2.962000000    -4.279000000
H     1.317000000    -3.227000000    -5.189000000
H     1.991000000    -3.224000000    -3.834000000
O     3.201000000     3.941000000    -0.607000000
H     2.964000000     4.094000000     0.308000000
H     2.969000000     3.026000000    -0.764000000
O    -5.655000000     5.767000000    -0.354000000
H    -5.596000000     4.830000000    -0.543000000
H    -5.646000000     6.186000000    -1.214000000
O     2.756000000    -5.467000000     3.765000000
H     2.743000000    -4.900000000     2.994000000
H     1.857000000    -5.447000000     4.092000000
O    -1.260000000     4.312000000     4.482000000
H    -1.457000000     4.723000000     5.324000000
H    -1.846000000     3.557000000     4.441000000
O     4.009000000    -0.696000000     5.059000000
H     3.342000000    -0.337000000     5.645000000
H     4.176000000    -1.576000000     5.397000000
O     1.595000000    -0.048000000    -3.911000000
H     1.603000000     0.279000000    -4.811000000
H     1.472000000    -0.993000000    -4.001000000
O    -7.442000000     0.454000000    -1.221000000
H    -6.614000000    -0.011000000    -1.343000000
H    -7.447000000     0.695000000    -0.295000000
O     1.799000000     1.372000000    -1.707000000
H     1.691000000     0.818000000    -2.480000000
H     1.481000000     0.835000000    -0.981000000
O    -0.413000000     3.564000000    -6.307000000
H    -0.930000000     3.563000000    -5.501000000
H    -1.045000000     3.769000000    -6.996000000
O    -5.317000000     3.163000000    -1.091000000
H    -4.363000000     3.084000000    -1.078000000
H    -5.632000000     2.306000000    -0.804000000
O     1.448000000     4.534000000     5.031000000
H     1.688000000     3.654000000     5.320000000
H     0.602000000     4.421000000     4.597000000
O     5.953000000     2.918000000     0.101000000
H     5.136000000     2.646000000     0.519000000
H     6.042000000     2.336000000    -0.653000000
O     3.943000000     1.873000000     2.949000000
H     4.119000000     1.993000000     3.883000000
H     3.146000000     2.379000000     2.789000000
O    -5.235000000     2.593000000     2.277000000
H    -4.489000000     2.113000000     2.638000000
H    -4.874000000     3.443000000     2.026000000
