158
-3042.30688
C    -0.834000000     1.157000000     0.479000000
H    -1.307000000     2.059000000     0.859000000
C     0.189000000     0.573000000     1.205000000
H     0.469000000     0.952000000     2.184000000
C     0.919000000    -0.502000000     0.692000000
H     1.658000000    -0.881000000     1.311000000
C     0.516000000    -1.036000000    -0.572000000
H     1.036000000    -1.831000000    -1.099000000
C    -0.592000000    -0.554000000    -1.249000000
H    -0.894000000    -0.992000000    -2.197000000
C    -1.263000000     0.581000000    -0.707000000
C    -2.396000000     1.162000000    -1.510000000
O    -2.848000000     0.531000000    -2.434000000
O    -2.717000000     2.344000000    -1.443000000
O     1.118000000    -3.422000000     3.222000000
H     0.323000000    -3.510000000     2.695000000
H     1.817000000    -3.299000000     2.580000000
O    -0.577000000    -4.884000000     4.751000000
H     0.128000000    -4.459000000     4.263000000
H    -1.026000000    -5.424000000     4.100000000
O    -4.725000000     4.781000000    -4.404000000
H    -5.273000000     4.975000000    -3.643000000
H    -4.063000000     5.473000000    -4.404000000
O     6.114000000     0.603000000    -0.500000000
H     6.459000000     1.466000000    -0.730000000
H     6.407000000     0.460000000     0.400000000
O     2.871000000     2.327000000     3.303000000
H     2.441000000     2.320000000     4.158000000
H     2.377000000     2.967000000     2.791000000
O     6.600000000    -3.292000000    -0.102000000
H     5.922000000    -3.227000000    -0.773000000
H     7.162000000    -2.532000000    -0.254000000
O    -2.480000000    -2.643000000    -3.480000000
H    -3.014000000    -2.467000000    -2.706000000
H    -3.107000000    -2.931000000    -4.143000000
O    -0.533000000     2.822000000    -3.253000000
H     0.007000000     2.046000000    -3.403000000
H    -1.422000000     2.480000000    -3.154000000
O    -1.976000000    -0.490000000    -4.667000000
H    -2.055000000    -1.392000000    -4.357000000
H    -2.248000000     0.044000000    -3.920000000
O    -2.822000000     4.858000000     2.352000000
H    -3.562000000     4.268000000     2.495000000
H    -3.206000000     5.735000000     2.377000000
O    -0.422000000    -4.652000000    -3.554000000
H    -0.047000000    -4.927000000    -4.391000000
H    -1.026000000    -3.946000000    -3.783000000
O    -6.255000000     1.793000000     1.389000000
H    -5.387000000     1.894000000     1.779000000
H    -6.831000000     2.315000000     1.948000000
O    -1.489000000     1.564000000     4.130000000
H    -1.002000000     0.740000000     4.122000000
H    -2.216000000     1.418000000     3.525000000
O     1.003000000     0.727000000    -3.577000000
H     1.538000000     0.183000000    -4.155000000
H     1.355000000     0.564000000    -2.701000000
O     2.866000000    -4.157000000     5.375000000
H     2.114000000    -3.816000000     4.892000000
H     2.844000000    -3.692000000     6.212000000
O    -3.738000000     0.598000000     3.156000000
H    -3.773000000    -0.354000000     3.060000000
H    -4.341000000     0.788000000     3.875000000
O     1.054000000    -5.748000000    -0.144000000
H     0.996000000    -6.692000000     0.003000000
H     0.163000000    -5.487000000    -0.376000000
O    -5.183000000    -0.308000000    -4.312000000
H    -4.628000000    -0.846000000    -4.876000000
H    -4.817000000     0.573000000    -4.386000000
O    -3.182000000     1.009000000    -6.665000000
H    -3.473000000     1.430000000    -5.856000000
H    -2.374000000     0.557000000    -6.423000000
O    -6.023000000     5.594000000    -2.174000000
H    -6.855000000     5.191000000    -2.423000000
H    -5.653000000     4.996000000    -1.524000000
O     6.839000000    -1.773000000     3.946000000
H     6.357000000    -1.776000000     4.772000000
H     6.274000000    -2.248000000     3.337000000
O     0.442000000    -1.248000000    -6.012000000
H     0.931000000    -0.542000000    -6.435000000
H    -0.268000000    -0.803000000    -5.548000000
O     0.107000000    -0.978000000     4.408000000
H    -0.727000000    -1.398000000     4.620000000
H     0.610000000    -1.658000000     3.961000000
O     4.301000000    -1.972000000    -1.055000000
H     4.898000000    -1.230000000    -0.960000000
H     3.527000000    -1.605000000    -1.481000000
O    -2.577000000    -2.784000000     0.149000000
H    -3.308000000    -2.578000000    -0.435000000
H    -1.995000000    -2.027000000     0.080000000
O     2.496000000    -3.411000000     0.823000000
H     2.084000000    -4.172000000     0.414000000
H     2.908000000    -2.942000000     0.097000000
O    -5.300000000     2.390000000    -1.093000000
H    -4.353000000     2.275000000    -1.173000000
H    -5.515000000     2.025000000    -0.235000000
O     2.710000000    -6.609000000    -2.245000000
H     2.095000000    -6.130000000    -1.689000000
H     2.339000000    -6.544000000    -3.125000000
O    -7.575000000     0.602000000    -4.990000000
H    -6.780000000     0.162000000    -4.687000000
H    -7.311000000     1.514000000    -5.113000000
O    -2.313000000     2.846000000     6.570000000
H    -1.934000000     2.563000000     5.739000000
H    -3.139000000     3.265000000     6.327000000
O     2.620000000     4.162000000     0.923000000
H     3.092000000     4.834000000     0.431000000
H     1.719000000     4.222000000     0.606000000
O    -3.514000000     7.171000000    -1.246000000
H    -4.337000000     6.975000000    -1.694000000
H    -3.260000000     6.343000000    -0.838000000
O     5.507000000     2.893000000     1.486000000
H     5.489000000     3.209000000     0.582000000
H     4.662000000     2.459000000     1.605000000
O    -1.751000000    -5.654000000    -1.363000000
H    -1.208000000    -5.246000000    -2.037000000
H    -2.649000000    -5.526000000    -1.670000000
O     2.279000000     1.843000000    -0.646000000
H     2.213000000     2.363000000     0.155000000
H     1.423000000     1.422000000    -0.730000000
O    -8.055000000     2.244000000    -1.560000000
H    -8.204000000     2.929000000    -2.212000000
H    -7.116000000     2.065000000    -1.611000000
O    -4.450000000    -1.478000000    -1.679000000
H    -3.887000000    -0.747000000    -1.935000000
H    -5.152000000    -1.479000000    -2.330000000
O     1.300000000     1.393000000     5.644000000
H     1.385000000     0.912000000     6.467000000
H     0.801000000     0.808000000     5.074000000
O     3.099000000    -1.161000000    -3.782000000
H     3.898000000    -0.744000000    -4.102000000
H     3.136000000    -2.051000000    -4.134000000
O     0.223000000     4.116000000    -0.689000000
H     0.094000000     5.065000000    -0.686000000
H     0.025000000     3.850000000    -1.586000000
O     1.306000000    -3.795000000    -5.886000000
H     0.810000000    -2.980000000    -5.960000000
H     2.208000000    -3.512000000    -5.730000000
O    -0.172000000     4.808000000    -5.461000000
H     0.285000000     5.461000000    -4.932000000
H    -0.533000000     4.192000000    -4.823000000
O    -2.705000000     4.707000000    -0.495000000
H    -2.670000000     4.482000000     0.434000000
H    -2.478000000     3.894000000    -0.947000000
O     5.170000000    -3.530000000     2.393000000
H     4.346000000    -3.791000000     1.980000000
H     5.807000000    -3.535000000     1.679000000
O    -1.645000000    -4.207000000     2.240000000
H    -2.493000000    -4.523000000     2.552000000
H    -1.838000000    -3.798000000     1.396000000
O    -0.165000000     4.039000000     3.158000000
H    -0.550000000     3.280000000     3.595000000
H    -0.914000000     4.516000000     2.801000000
O    -4.056000000     2.077000000    -4.192000000
H    -4.386000000     2.945000000    -3.963000000
H    -3.683000000     1.740000000    -3.377000000
O     5.393000000     1.287000000     4.429000000
H     4.610000000     1.371000000     3.886000000
H     5.395000000     0.371000000     4.707000000
