158
-3013.12592
C     0.499000000    -0.606000000    -1.183000000
H     0.807000000    -1.271000000    -1.985000000
C    -0.594000000    -1.101000000    -0.429000000
H    -1.074000000    -2.047000000    -0.667000000
C    -0.981000000    -0.410000000     0.699000000
H    -1.815000000    -0.809000000     1.274000000
C    -0.331000000     0.780000000     0.984000000
H    -0.484000000     1.351000000     1.897000000
C     0.722000000     1.254000000     0.254000000
H     1.349000000     2.104000000     0.514000000
C     1.148000000     0.575000000    -0.909000000
C     2.320000000     0.996000000    -1.753000000
O     2.583000000     0.354000000    -2.745000000
O     2.909000000     2.112000000    -1.613000000
O     0.847000000    -3.588000000    -4.413000000
H     1.513000000    -2.922000000    -4.242000000
H     0.869000000    -4.153000000    -3.641000000
O    -2.171000000    -5.478000000    -2.310000000
H    -1.745000000    -5.983000000    -1.617000000
H    -2.370000000    -6.123000000    -2.988000000
O     2.068000000     1.143000000    -5.175000000
H     1.446000000     1.862000000    -5.055000000
H     2.239000000     0.825000000    -4.288000000
O     7.420000000     2.676000000    -4.107000000
H     6.690000000     3.048000000    -3.613000000
H     7.044000000     2.455000000    -4.959000000
O    -1.955000000     0.459000000     3.956000000
H    -2.778000000     0.691000000     3.526000000
H    -1.538000000     1.300000000     4.146000000
O    -0.084000000     3.403000000    -5.087000000
H    -0.711000000     2.918000000    -4.550000000
H     0.351000000     3.994000000    -4.472000000
O     1.275000000    -4.369000000    -1.691000000
H     1.914000000    -4.851000000    -1.166000000
H     0.435000000    -4.543000000    -1.265000000
O    -1.750000000    -2.869000000    -3.333000000
H    -0.811000000    -2.745000000    -3.467000000
H    -1.831000000    -3.771000000    -3.022000000
O    -0.917000000     3.877000000    -0.745000000
H    -0.561000000     4.220000000     0.074000000
H    -1.794000000     4.256000000    -0.804000000
O    -0.939000000    -1.875000000     4.460000000
H    -1.473000000    -1.161000000     4.112000000
H    -1.375000000    -2.671000000     4.156000000
O    -7.411000000    -2.921000000     1.457000000
H    -8.157000000    -3.166000000     0.909000000
H    -6.800000000    -2.499000000     0.854000000
O    -4.229000000    -1.275000000    -2.327000000
H    -4.523000000    -1.079000000    -3.217000000
H    -3.317000000    -1.544000000    -2.431000000
O     1.937000000     6.413000000    -1.852000000
H     2.586000000     7.113000000    -1.792000000
H     1.188000000     6.817000000    -2.289000000
O     3.552000000    -2.587000000    -2.646000000
H     4.214000000    -1.929000000    -2.435000000
H     2.734000000    -2.092000000    -2.707000000
O     3.909000000     3.346000000    -6.203000000
H     4.313000000     4.194000000    -6.022000000
H     3.696000000     2.993000000    -5.339000000
O    -1.000000000     4.003000000     3.470000000
H    -0.466000000     4.203000000     2.701000000
H    -1.815000000     4.485000000     3.328000000
O    -5.387000000     0.271000000     0.112000000
H    -4.953000000     0.094000000    -0.722000000
H    -6.287000000     0.490000000    -0.128000000
O    -3.203000000     2.591000000    -4.130000000
H    -3.853000000     2.002000000    -3.747000000
H    -2.411000000     2.442000000    -3.613000000
O     1.365000000    -0.433000000    -7.379000000
H     1.596000000    -0.176000000    -6.486000000
H     1.837000000     0.186000000    -7.936000000
O     4.459000000    -5.388000000    -2.042000000
H     5.188000000    -5.454000000    -2.659000000
H     4.172000000    -4.478000000    -2.107000000
O     0.415000000     5.118000000     1.278000000
H     1.210000000     4.871000000     0.806000000
H     0.555000000     6.033000000     1.521000000
O    -3.052000000    -4.990000000     0.438000000
H    -2.447000000    -4.776000000    -0.272000000
H    -3.550000000    -4.185000000     0.579000000
O     6.115000000     5.794000000    -0.007000000
H     6.188000000     4.871000000     0.237000000
H     5.924000000     6.245000000     0.815000000
O    -1.666000000     6.824000000    -0.021000000
H    -1.009000000     6.189000000     0.267000000
H    -1.359000000     7.114000000    -0.880000000
O     1.970000000     6.127000000    -5.622000000
H     1.075000000     6.097000000    -5.958000000
H     1.952000000     5.572000000    -4.842000000
O    -4.387000000     1.347000000     2.559000000
H    -5.009000000     0.742000000     2.963000000
H    -4.481000000     1.195000000     1.619000000
O     4.783000000    -3.139000000    -5.285000000
H     5.524000000    -2.548000000    -5.155000000
H     4.408000000    -3.248000000    -4.411000000
O     4.529000000    -0.068000000    -5.403000000
H     3.732000000     0.440000000    -5.553000000
H     5.119000000     0.198000000    -6.108000000
O     5.484000000     3.173000000    -2.281000000
H     5.701000000     3.541000000    -1.424000000
H     4.613000000     2.792000000    -2.164000000
O    -2.159000000    -4.173000000     3.607000000
H    -2.939000000    -4.166000000     3.054000000
H    -1.719000000    -4.995000000     3.390000000
O    -0.506000000    -6.402000000    -0.328000000
H    -0.676000000    -6.601000000     0.593000000
H     0.360000000    -6.772000000    -0.497000000
O     0.501000000     2.941000000     5.544000000
H     0.137000000     3.361000000     4.764000000
H     0.345000000     2.007000000     5.408000000
O    -1.268000000    -1.984000000     7.421000000
H    -1.996000000    -2.591000000     7.555000000
H    -1.242000000    -1.846000000     6.474000000
O     2.893000000     4.380000000    -0.109000000
H     2.938000000     3.599000000    -0.661000000
H     2.604000000     5.075000000    -0.701000000
O     5.046000000    -0.289000000    -2.786000000
H     4.261000000     0.139000000    -2.445000000
H     4.902000000    -0.335000000    -3.731000000
O    -1.015000000     2.047000000    -2.670000000
H    -0.823000000     2.571000000    -1.892000000
H    -0.604000000     1.200000000    -2.495000000
O     5.716000000     5.525000000    -4.375000000
H     5.902000000     6.312000000    -3.863000000
H     5.801000000     4.806000000    -3.750000000
O    -4.460000000    -2.401000000     0.074000000
H    -4.251000000    -1.962000000    -0.750000000
H    -4.692000000    -1.691000000     0.672000000
O    -5.480000000    -1.964000000     3.160000000
H    -6.180000000    -2.398000000     2.672000000
H    -5.223000000    -2.600000000     3.828000000
O     6.953000000    -0.442000000    -0.877000000
H     7.551000000     0.099000000    -1.393000000
H     6.111000000    -0.363000000    -1.325000000
O     4.558000000     0.893000000     1.550000000
H     4.251000000     1.769000000     1.784000000
H     5.272000000     1.047000000     0.931000000
O     4.262000000     1.435000000     4.714000000
H     4.841000000     2.188000000     4.830000000
H     3.924000000     1.527000000     3.824000000
O    -5.416000000    -4.346000000    -2.003000000
H    -4.509000000    -4.508000000    -2.264000000
H    -5.382000000    -3.519000000    -1.521000000
O     1.859000000     4.155000000    -3.323000000
H     2.488000000     3.583000000    -2.884000000
H     1.802000000     4.926000000    -2.758000000
O    -7.147000000     0.416000000     3.392000000
H    -6.719000000    -0.384000000     3.087000000
H    -8.003000000     0.124000000     3.706000000
O     3.675000000    -1.597000000     1.912000000
H     3.181000000    -1.619000000     2.731000000
H     3.883000000    -0.672000000     1.782000000
O     2.876000000     3.520000000     2.576000000
H     2.568000000     3.978000000     1.794000000
H     3.371000000     4.181000000     3.061000000
O     1.656000000    -2.345000000     4.169000000
H     0.738000000    -2.105000000     4.044000000
H     1.679000000    -3.290000000     4.021000000
