158
-3044.73514
C     0.837000000    -0.550000000    -1.053000000
H     1.384000000    -1.092000000    -1.819000000
C    -0.462000000    -0.879000000    -0.858000000
H    -0.813000000    -1.676000000    -1.509000000
C    -1.201000000    -0.250000000     0.141000000
H    -2.233000000    -0.510000000     0.292000000
C    -0.623000000     0.689000000     0.938000000
H    -1.138000000     1.099000000     1.803000000
C     0.689000000     1.051000000     0.737000000
H     1.147000000     1.807000000     1.370000000
C     1.443000000     0.470000000    -0.266000000
C     2.982000000     0.811000000    -0.335000000
O     3.693000000     0.007000000    -0.881000000
O     3.466000000     1.651000000     0.405000000
O    -0.151000000    -4.777000000    -3.915000000
H     0.774000000    -4.550000000    -3.813000000
H    -0.216000000    -5.672000000    -3.581000000
O    -2.518000000    -5.805000000     0.507000000
H    -2.532000000    -4.957000000     0.949000000
H    -1.596000000    -6.062000000     0.511000000
O     1.835000000     5.641000000    -0.179000000
H     2.395000000     6.299000000    -0.593000000
H     2.408000000     4.884000000    -0.053000000
O     2.604000000     1.668000000    -4.379000000
H     3.555000000     1.634000000    -4.271000000
H     2.301000000     2.218000000    -3.657000000
O     5.286000000     1.852000000    -3.820000000
H     5.770000000     2.143000000    -3.047000000
H     5.729000000     2.278000000    -4.554000000
O    -2.998000000    -0.636000000     3.384000000
H    -3.808000000    -0.321000000     2.983000000
H    -2.448000000     0.144000000     3.459000000
O     0.747000000    -2.402000000     1.673000000
H     0.380000000    -3.165000000     1.225000000
H     0.438000000    -1.654000000     1.162000000
O    -2.319000000    -3.288000000    -3.618000000
H    -2.604000000    -3.197000000    -4.528000000
H    -1.454000000    -3.695000000    -3.678000000
O    -2.781000000     2.952000000     0.145000000
H    -2.197000000     3.626000000     0.493000000
H    -2.217000000     2.189000000     0.018000000
O    -7.100000000    -4.306000000     0.773000000
H    -7.465000000    -4.298000000    -0.112000000
H    -6.315000000    -3.761000000     0.713000000
O    -3.575000000    -1.239000000    -2.851000000
H    -3.950000000    -1.231000000    -3.732000000
H    -2.912000000    -1.929000000    -2.880000000
O     4.974000000    -3.544000000    -3.193000000
H     5.716000000    -3.327000000    -3.757000000
H     4.713000000    -2.707000000    -2.808000000
O    -0.349000000     3.607000000    -2.390000000
H    -0.993000000     3.922000000    -3.025000000
H    -0.741000000     3.796000000    -1.538000000
O     3.374000000    -2.501000000     0.378000000
H     3.297000000    -1.662000000    -0.077000000
H     2.571000000    -2.567000000     0.895000000
O    -1.804000000     2.223000000     3.712000000
H    -1.303000000     2.835000000     3.172000000
H    -2.041000000     2.729000000     4.489000000
O    -5.522000000    -0.650000000    -0.966000000
H    -4.927000000    -0.787000000    -1.703000000
H    -6.040000000     0.116000000    -1.215000000
O    -5.400000000     3.490000000    -0.490000000
H    -5.624000000     2.582000000    -0.695000000
H    -4.498000000     3.449000000    -0.173000000
O     8.044000000     2.478000000     0.712000000
H     7.720000000     2.069000000     1.514000000
H     8.880000000     2.870000000     0.964000000
O     0.549000000    -2.410000000    -6.233000000
H     1.249000000    -2.173000000    -5.624000000
H     0.537000000    -1.699000000    -6.873000000
O     2.348000000    -4.333000000    -2.794000000
H     3.259000000    -4.110000000    -2.982000000
H     2.398000000    -5.149000000    -2.297000000
O    -0.347000000     5.590000000     3.060000000
H    -0.423000000     6.375000000     3.602000000
H     0.167000000     4.981000000     3.591000000
O    -3.082000000    -3.529000000     2.247000000
H    -3.804000000    -3.394000000     1.633000000
H    -2.827000000    -2.646000000     2.514000000
O     6.564000000     4.824000000     2.420000000
H     5.631000000     4.628000000     2.340000000
H     6.924000000     4.080000000     2.903000000
O    -0.715000000     4.793000000     0.454000000
H    -0.533000000     5.113000000     1.338000000
H     0.104000000     4.929000000    -0.023000000
O    -6.038000000     0.821000000     1.720000000
H    -6.685000000     0.364000000     2.257000000
H    -5.787000000     0.183000000     1.051000000
O     6.612000000     0.019000000     4.229000000
H     6.080000000    -0.121000000     3.446000000
H     7.391000000    -0.519000000     4.088000000
O    -6.410000000     1.677000000    -2.447000000
H    -7.209000000     1.359000000    -2.867000000
H    -5.963000000     2.176000000    -3.130000000
O     3.164000000    -1.312000000    -5.538000000
H     3.044000000    -0.376000000    -5.703000000
H     3.484000000    -1.357000000    -4.637000000
O     5.613000000    -3.933000000    -0.006000000
H     4.681000000    -3.725000000     0.053000000
H     6.036000000    -3.093000000    -0.182000000
O     5.994000000     2.750000000    -0.986000000
H     6.724000000     2.665000000    -0.373000000
H     5.258000000     2.329000000    -0.542000000
O    -4.123000000     1.696000000    -4.808000000
H    -4.056000000     1.169000000    -5.604000000
H    -3.361000000     1.441000000    -4.287000000
O    -2.988000000    -5.037000000     4.399000000
H    -2.835000000    -4.675000000     3.527000000
H    -3.825000000    -5.496000000     4.325000000
O    -0.034000000    -4.311000000    -0.301000000
H     0.059000000    -5.259000000    -0.207000000
H     0.400000000    -4.110000000    -1.131000000
O    -1.679000000     0.640000000     6.426000000
H    -1.761000000    -0.155000000     5.899000000
H    -0.792000000     0.953000000     6.250000000
O     3.686000000     3.795000000     1.970000000
H     3.834000000     3.064000000     1.370000000
H     2.965000000     3.504000000     2.528000000
O     4.469000000    -0.823000000    -3.241000000
H     4.080000000    -0.561000000    -2.407000000
H     4.894000000    -0.030000000    -3.567000000
O    -1.487000000     1.033000000    -3.468000000
H    -1.275000000     1.682000000    -2.797000000
H    -1.709000000     0.243000000    -2.976000000
O     4.516000000     5.452000000    -1.422000000
H     5.113000000     5.837000000    -0.779000000
H     4.883000000     4.587000000    -1.601000000
O    -4.722000000    -3.303000000     0.143000000
H    -4.330000000    -3.778000000    -0.589000000
H    -4.949000000    -2.447000000    -0.220000000
O     6.289000000    -1.144000000    -0.718000000
H     6.865000000    -0.780000000    -1.390000000
H     5.405000000    -0.958000000    -1.034000000
O    -4.847000000     2.123000000     3.697000000
H    -3.952000000     2.278000000     3.394000000
H    -5.327000000     1.874000000     2.907000000
O     5.530000000    -0.009000000     1.771000000
H     5.939000000    -0.419000000     1.009000000
H     4.877000000     0.586000000     1.401000000
O     0.991000000     1.371000000     6.195000000
H     0.908000000     2.195000000     5.716000000
H     1.384000000     1.619000000     7.032000000
O    -3.734000000    -5.411000000    -1.935000000
H    -3.236000000    -4.722000000    -2.375000000
H    -3.201000000    -5.641000000    -1.173000000
O     2.290000000     3.730000000    -2.461000000
H     2.737000000     4.404000000    -1.949000000
H     1.361000000     3.868000000    -2.280000000
O     3.631000000    -1.985000000     3.496000000
H     3.906000000    -1.176000000     3.064000000
H     2.675000000    -1.930000000     3.521000000
O     1.895000000     4.029000000     4.071000000
H     2.476000000     4.781000000     4.190000000
H     1.241000000     4.121000000     4.763000000
O    -1.910000000    -1.982000000     5.399000000
H    -2.657000000    -1.822000000     4.821000000
H    -2.296000000    -2.068000000     6.270000000
