158
-3028.53053
C    -0.580000000     1.349000000     0.376000000
H    -0.876000000     2.337000000     0.722000000
C     0.143000000     0.517000000     1.224000000
H     0.424000000     0.782000000     2.240000000
C     0.664000000    -0.642000000     0.734000000
H     1.354000000    -1.112000000     1.436000000
C     0.317000000    -1.082000000    -0.509000000
H     0.677000000    -2.039000000    -0.878000000
C    -0.372000000    -0.315000000    -1.384000000
H    -0.515000000    -0.641000000    -2.411000000
C    -0.828000000     0.898000000    -0.971000000
C    -1.549000000     1.792000000    -1.839000000
O    -2.225000000     1.339000000    -2.773000000
O    -1.553000000     2.993000000    -1.631000000
O     1.922000000    -3.486000000     2.950000000
H     1.126000000    -3.121000000     2.563000000
H     2.580000000    -2.801000000     2.837000000
O     6.709000000     0.492000000     4.017000000
H     5.765000000     0.339000000     3.983000000
H     6.795000000     1.440000000     4.113000000
O    -4.719000000     4.149000000    -4.393000000
H    -4.829000000     3.891000000    -3.477000000
H    -3.771000000     4.162000000    -4.526000000
O    -0.388000000     1.662000000     5.575000000
H    -1.030000000     1.395000000     6.233000000
H     0.280000000     0.977000000     5.601000000
O     6.171000000    -0.624000000    -0.947000000
H     5.292000000    -0.246000000    -0.979000000
H     6.684000000     0.004000000    -0.439000000
O     3.413000000    -7.340000000     1.527000000
H     3.795000000    -7.849000000     0.812000000
H     3.123000000    -6.527000000     1.115000000
O     3.049000000     3.194000000     4.946000000
H     2.252000000     3.680000000     5.156000000
H     3.545000000     3.782000000     4.375000000
O     3.236000000     2.044000000     2.125000000
H     2.971000000     1.994000000     3.044000000
H     2.466000000     2.387000000     1.672000000
O     6.133000000    -3.456000000    -1.672000000
H     5.237000000    -3.159000000    -1.830000000
H     6.487000000    -2.827000000    -1.044000000
O    -5.322000000    -2.571000000    -3.489000000
H    -4.643000000    -2.014000000    -3.108000000
H    -5.214000000    -2.465000000    -4.435000000
O    -1.819000000     3.995000000    -4.059000000
H    -0.880000000     4.036000000    -4.240000000
H    -1.886000000     3.480000000    -3.255000000
O    -0.289000000     1.286000000    -4.643000000
H    -1.013000000     1.349000000    -4.020000000
H     0.351000000     1.925000000    -4.330000000
O    -2.835000000     3.248000000     2.022000000
H    -2.702000000     2.449000000     2.533000000
H    -3.786000000     3.355000000     1.989000000
O    -2.661000000    -4.060000000    -2.267000000
H    -2.943000000    -4.146000000    -3.177000000
H    -2.894000000    -3.163000000    -2.027000000
O    -2.807000000     0.995000000     3.795000000
H    -2.080000000     0.775000000     4.378000000
H    -3.078000000     0.155000000     3.424000000
O     0.835000000     4.046000000    -4.184000000
H     1.621000000     4.257000000    -4.689000000
H     1.125000000     4.064000000    -3.272000000
O     2.213000000    -5.294000000     4.798000000
H     1.983000000    -4.654000000     4.124000000
H     2.182000000    -4.801000000     5.618000000
O     0.007000000    -4.421000000    -1.619000000
H     0.185000000    -4.598000000    -0.695000000
H    -0.947000000    -4.465000000    -1.692000000
O    -2.686000000     1.487000000    -6.840000000
H    -3.177000000     1.458000000    -6.019000000
H    -1.925000000     0.928000000    -6.684000000
O    -1.137000000    -6.483000000     2.685000000
H    -0.542000000    -6.863000000     3.332000000
H    -0.723000000    -6.668000000     1.842000000
O    -4.625000000     6.081000000    -1.128000000
H    -5.299000000     6.251000000    -0.470000000
H    -4.631000000     5.130000000    -1.236000000
O     7.074000000    -1.691000000     2.393000000
H     6.279000000    -1.784000000     1.867000000
H     7.019000000    -0.806000000     2.755000000
O     0.299000000    -0.249000000    -6.874000000
H     1.164000000    -0.051000000    -7.231000000
H     0.142000000     0.439000000    -6.227000000
O    -0.776000000    -1.580000000     4.520000000
H    -1.509000000    -1.884000000     5.056000000
H    -0.912000000    -1.997000000     3.669000000
O     4.332000000     3.247000000    -0.966000000
H     4.599000000     3.692000000    -1.771000000
H     3.397000000     3.081000000    -1.083000000
O     3.645000000    -2.676000000    -2.181000000
H     3.082000000    -2.009000000    -1.788000000
H     3.565000000    -2.533000000    -3.124000000
O    -3.461000000    -3.686000000     1.528000000
H    -3.834000000    -4.237000000     0.840000000
H    -3.658000000    -4.151000000     2.341000000
O    -5.207000000     0.310000000    -0.815000000
H    -5.480000000     0.961000000    -1.462000000
H    -5.789000000     0.455000000    -0.069000000
O     2.893000000    -4.476000000     0.082000000
H     2.339000000    -3.968000000     0.675000000
H     2.988000000    -3.920000000    -0.691000000
O    -4.522000000     3.494000000    -1.576000000
H    -3.607000000     3.232000000    -1.678000000
H    -4.814000000     3.039000000    -0.785000000
O     2.073000000    -5.395000000    -3.340000000
H     1.759000000    -4.684000000    -2.781000000
H     1.309000000    -5.647000000    -3.858000000
O     4.470000000    -1.014000000     4.941000000
H     4.291000000    -0.340000000     5.598000000
H     4.651000000    -1.803000000     5.450000000
O     1.607000000     4.304000000     1.274000000
H     1.858000000     5.212000000     1.440000000
H     0.791000000     4.187000000     1.762000000
O    -2.121000000     7.228000000    -1.223000000
H    -3.039000000     7.007000000    -1.065000000
H    -1.631000000     6.491000000    -0.859000000
O     2.656000000     0.940000000    -1.273000000
H     3.244000000     1.553000000    -0.833000000
H     1.859000000     0.950000000    -0.742000000
O    -6.601000000     1.377000000    -3.072000000
H    -6.990000000     2.160000000    -2.682000000
H    -7.230000000     1.106000000    -3.741000000
O    -3.502000000    -1.255000000    -2.175000000
H    -3.013000000    -0.539000000    -2.579000000
H    -4.161000000    -0.820000000    -1.634000000
O     1.595000000    -0.227000000     4.670000000
H     2.222000000    -0.916000000     4.890000000
H     0.817000000    -0.697000000     4.371000000
O     0.684000000    -2.190000000    -4.984000000
H     1.180000000    -1.651000000    -4.369000000
H     0.667000000    -1.678000000    -5.792000000
O     1.165000000     3.612000000    -1.435000000
H     0.226000000     3.466000000    -1.547000000
H     1.255000000     3.906000000    -0.529000000
O     2.952000000    -0.515000000    -3.921000000
H     2.763000000     0.048000000    -4.672000000
H     2.766000000     0.033000000    -3.159000000
O    -1.733000000    -3.647000000    -4.800000000
H    -1.014000000    -3.016000000    -4.760000000
H    -1.305000000    -4.502000000    -4.748000000
O    -1.601000000     4.921000000     0.225000000
H    -2.114000000     4.441000000     0.875000000
H    -1.573000000     4.341000000    -0.535000000
O     5.599000000    -4.349000000     1.643000000
H     4.738000000    -4.254000000     1.236000000
H     6.007000000    -5.077000000     1.174000000
O    -0.823000000    -2.771000000     2.177000000
H    -1.615000000    -3.308000000     2.152000000
H    -0.945000000    -2.132000000     1.475000000
O    -0.273000000     3.905000000     3.448000000
H    -0.485000000     3.021000000     3.746000000
H    -1.117000000     4.354000000     3.409000000
O    -4.477000000     1.249000000    -4.756000000
H    -5.143000000     1.666000000    -4.209000000
H    -3.847000000     0.887000000    -4.132000000
O     3.820000000    -1.158000000     2.374000000
H     3.415000000    -0.308000000     2.202000000
H     4.217000000    -1.063000000     3.240000000
