158
-3046.98059
C    -0.935000000     0.027000000    -1.104000000
H    -1.572000000    -0.079000000    -1.978000000
C     0.287000000    -0.656000000    -1.032000000
H     0.573000000    -1.327000000    -1.837000000
C     1.043000000    -0.688000000     0.130000000
H     1.868000000    -1.419000000     0.322000000
C     0.579000000     0.116000000     1.191000000
H     1.204000000     0.052000000     2.078000000
C    -0.507000000     0.938000000     1.098000000
H    -0.850000000     1.624000000     1.869000000
C    -1.270000000     0.857000000    -0.071000000
C    -2.488000000     1.692000000    -0.206000000
O    -2.808000000     2.070000000    -1.318000000
O    -3.095000000     2.204000000     0.735000000
O     4.556000000    -2.690000000     0.116000000
H     4.374000000    -2.431000000    -0.787000000
H     4.644000000    -1.863000000     0.590000000
O     2.846000000    -4.112000000    -3.367000000
H     2.581000000    -3.389000000    -3.936000000
H     3.768000000    -4.258000000    -3.580000000
O     1.212000000    -6.481000000     3.513000000
H     1.251000000    -6.262000000     2.582000000
H     1.251000000    -7.437000000     3.536000000
O    -3.963000000    -1.791000000     3.856000000
H    -4.170000000    -1.335000000     3.040000000
H    -3.007000000    -1.772000000     3.904000000
O    -5.376000000     2.562000000    -1.788000000
H    -5.648000000     1.690000000    -1.503000000
H    -4.477000000     2.648000000    -1.471000000
O     0.926000000    -5.041000000    -1.770000000
H     1.313000000    -5.899000000    -1.595000000
H     1.567000000    -4.599000000    -2.327000000
O    -1.844000000     6.098000000    -4.501000000
H    -1.510000000     5.203000000    -4.561000000
H    -2.314000000     6.122000000    -3.667000000
O     4.767000000     3.107000000    -3.330000000
H     4.853000000     2.154000000    -3.308000000
H     4.581000000     3.310000000    -4.247000000
O    -4.034000000    -0.798000000    -4.350000000
H    -4.196000000    -1.296000000    -5.151000000
H    -3.516000000    -0.046000000    -4.637000000
O     3.706000000    -7.069000000     0.922000000
H     3.532000000    -6.189000000     1.257000000
H     4.308000000    -6.932000000     0.191000000
O     1.109000000     0.293000000     4.977000000
H     0.615000000     1.107000000     4.878000000
H     0.763000000    -0.102000000     5.777000000
O    -5.475000000     6.073000000    -2.845000000
H    -5.434000000     5.204000000    -3.243000000
H    -6.037000000     5.959000000    -2.079000000
O    -7.129000000     3.461000000     2.241000000
H    -6.861000000     3.734000000     1.364000000
H    -8.075000000     3.608000000     2.260000000
O     3.030000000    -1.253000000    -4.585000000
H     3.129000000    -0.783000000    -3.757000000
H     2.466000000    -0.690000000    -5.114000000
O    -1.759000000    -1.967000000     1.375000000
H    -1.173000000    -1.421000000     0.852000000
H    -1.549000000    -1.744000000     2.282000000
O    -5.028000000     2.379000000     3.694000000
H    -4.896000000     1.572000000     3.196000000
H    -5.767000000     2.808000000     3.264000000
O    -5.537000000    -0.291000000    -1.950000000
H    -5.309000000    -0.557000000    -2.841000000
H    -4.863000000    -0.692000000    -1.401000000
O    -0.773000000    -2.106000000     3.913000000
H     0.069000000    -1.750000000     4.194000000
H    -0.655000000    -3.056000000     3.947000000
O    -7.519000000     3.864000000    -0.643000000
H    -6.709000000     3.597000000    -1.078000000
H    -8.192000000     3.300000000    -1.024000000
O    -2.432000000     1.711000000    -3.930000000
H    -1.710000000     2.317000000    -4.097000000
H    -2.530000000     1.712000000    -2.978000000
O     0.641000000    -5.115000000     1.010000000
H     0.923000000    -5.116000000     0.095000000
H    -0.183000000    -4.629000000     1.006000000
O     3.782000000    -0.792000000    -1.648000000
H     4.707000000    -0.555000000    -1.709000000
H     3.351000000     0.002000000    -1.332000000
O    -4.734000000     0.339000000     1.854000000
H    -5.196000000    -0.206000000     1.217000000
H    -4.171000000     0.902000000     1.322000000
O    -3.498000000    -2.211000000    -0.927000000
H    -2.846000000    -2.569000000    -1.529000000
H    -3.157000000    -2.412000000    -0.056000000
O     4.253000000     1.709000000     3.068000000
H     4.590000000     2.408000000     3.628000000
H     3.934000000     1.045000000     3.679000000
O    -1.307000000    -4.187000000    -2.753000000
H    -0.841000000    -3.711000000    -3.440000000
H    -0.618000000    -4.479000000    -2.155000000
O     0.134000000     5.250000000    -1.136000000
H     0.202000000     5.799000000    -0.355000000
H     0.923000000     5.452000000    -1.639000000
O    -2.532000000     3.576000000     2.775000000
H    -2.526000000     3.308000000     1.856000000
H    -3.369000000     3.256000000     3.111000000
O    -1.905000000    -0.467000000    -6.276000000
H    -1.926000000    -0.926000000    -5.436000000
H    -2.266000000    -1.097000000    -6.901000000
O     4.866000000    -0.401000000     1.800000000
H     4.325000000    -1.016000000     2.296000000
H     4.722000000     0.443000000     2.227000000
O    -2.306000000     4.611000000    -2.050000000
H    -1.498000000     4.928000000    -1.644000000
H    -2.309000000     3.670000000    -1.876000000
O     1.441000000     0.218000000    -6.352000000
H     1.472000000     1.118000000    -6.677000000
H     0.911000000    -0.250000000    -6.997000000
O    -2.694000000    -4.811000000     1.893000000
H    -3.605000000    -4.560000000     1.743000000
H    -2.221000000    -3.980000000     1.940000000
O     3.347000000    -4.330000000     1.710000000
H     2.681000000    -4.272000000     1.025000000
H     3.982000000    -3.650000000     1.485000000
O    -2.853000000     7.110000000     1.069000000
H    -3.552000000     6.552000000     0.728000000
H    -2.382000000     6.553000000     1.688000000
O     1.135000000     1.321000000    -3.306000000
H     0.656000000     0.645000000    -2.826000000
H     1.690000000     1.736000000    -2.645000000
O     0.832000000    -3.113000000    -5.389000000
H    -0.119000000    -3.098000000    -5.497000000
H     1.164000000    -2.581000000    -6.112000000
O     2.968000000    -4.250000000     4.320000000
H     3.347000000    -4.171000000     3.445000000
H     2.283000000    -4.912000000     4.226000000
O    -0.687000000     5.947000000     2.937000000
H    -1.141000000     5.107000000     3.005000000
H    -0.793000000     6.346000000     3.801000000
O     2.622000000    -1.578000000     3.493000000
H     2.118000000    -0.974000000     4.038000000
H     2.507000000    -2.431000000     3.912000000
O    -0.064000000     3.108000000    -4.931000000
H     0.249000000     3.073000000    -5.834000000
H     0.290000000     2.318000000    -4.523000000
O     7.410000000    -3.958000000    -0.514000000
H     6.486000000    -3.789000000    -0.331000000
H     7.536000000    -4.878000000    -0.279000000
O     2.702000000     1.800000000    -0.929000000
H     2.852000000     2.703000000    -0.651000000
H     2.169000000     1.419000000    -0.232000000
O    -5.432000000     3.591000000    -4.705000000
H    -6.314000000     3.276000000    -4.902000000
H    -5.288000000     3.342000000    -3.792000000
O     6.001000000     1.372000000    -0.050000000
H     5.967000000     0.571000000     0.473000000
H     5.175000000     1.818000000     0.140000000
O    -0.854000000     2.695000000     5.122000000
H    -1.315000000     2.796000000     4.289000000
H    -1.084000000     3.480000000     5.620000000
O    -4.350000000     4.981000000    -0.060000000
H    -4.051000000     4.216000000     0.431000000
H    -3.657000000     5.143000000    -0.699000000
O    -6.722000000    -1.022000000     0.445000000
H    -6.724000000    -0.607000000    -0.418000000
H    -7.428000000    -1.667000000     0.402000000
