158
-3044.11289
C    -0.109000000     0.628000000    -1.299000000
H     0.015000000     0.997000000    -2.314000000
C     0.730000000    -0.452000000    -0.948000000
H     1.401000000    -0.875000000    -1.692000000
C     0.689000000    -0.981000000     0.341000000
H     1.481000000    -1.780000000     0.718000000
C    -0.173000000    -0.382000000     1.296000000
H    -0.025000000    -0.717000000     2.320000000
C    -0.958000000     0.711000000     0.933000000
H    -1.686000000     1.188000000     1.584000000
C    -0.947000000     1.224000000    -0.355000000
C    -1.752000000     2.428000000    -0.817000000
O    -1.721000000     2.771000000    -1.974000000
O    -2.697000000     2.758000000    -0.098000000
O     7.162000000    -2.754000000    -0.844000000
H     6.926000000    -2.322000000    -1.664000000
H     6.798000000    -2.188000000    -0.162000000
O    -7.376000000     3.297000000     1.652000000
H    -7.184000000     2.828000000     0.840000000
H    -6.691000000     3.962000000     1.714000000
O     0.957000000    -1.845000000    -4.066000000
H     0.599000000    -1.074000000    -4.506000000
H     0.357000000    -2.004000000    -3.337000000
O    -1.629000000    -2.587000000     3.374000000
H    -2.460000000    -2.450000000     2.918000000
H    -1.107000000    -3.112000000     2.767000000
O    -4.735000000     3.385000000    -1.701000000
H    -4.615000000     2.707000000    -2.366000000
H    -4.076000000     3.186000000    -1.036000000
O     3.853000000    -1.141000000    -3.987000000
H     3.021000000    -1.347000000    -3.561000000
H     3.659000000    -1.184000000    -4.924000000
O     1.397000000     5.557000000     0.416000000
H     0.462000000     5.654000000     0.594000000
H     1.441000000     5.317000000    -0.510000000
O     0.659000000    -5.147000000     3.779000000
H     0.581000000    -6.073000000     4.006000000
H     0.575000000    -4.687000000     4.615000000
O    -2.991000000     7.013000000     0.693000000
H    -2.485000000     6.999000000    -0.120000000
H    -3.265000000     7.926000000     0.788000000
O    -3.569000000     1.935000000    -3.722000000
H    -2.935000000     2.264000000    -3.085000000
H    -3.441000000     0.986000000    -3.719000000
O     2.934000000    -4.618000000     1.626000000
H     2.205000000    -4.284000000     2.150000000
H     2.634000000    -4.537000000     0.721000000
O    -2.695000000    -1.145000000    -3.962000000
H    -2.435000000    -1.224000000    -3.044000000
H    -3.630000000    -1.351000000    -3.964000000
O    -3.351000000     6.568000000    -3.406000000
H    -4.089000000     7.076000000    -3.070000000
H    -2.764000000     7.221000000    -3.786000000
O     2.226000000    -4.456000000    -1.662000000
H     2.120000000    -5.389000000    -1.847000000
H     3.167000000    -4.301000000    -1.742000000
O    -2.765000000     2.887000000     4.063000000
H    -1.879000000     2.525000000     4.081000000
H    -2.728000000     3.576000000     3.399000000
O    -0.325000000     1.579000000     4.924000000
H     0.609000000     1.607000000     4.716000000
H    -0.471000000     0.690000000     5.249000000
O    -4.897000000    -0.398000000    -1.565000000
H    -4.005000000    -0.265000000    -1.246000000
H    -5.194000000    -1.193000000    -1.122000000
O    -0.300000000    -3.934000000     1.774000000
H    -0.528000000    -4.554000000     1.081000000
H     0.028000000    -4.481000000     2.487000000
O    -5.687000000     5.566000000     0.589000000
H    -5.195000000     4.976000000     0.018000000
H    -5.060000000     6.250000000     0.824000000
O     1.209000000    -7.602000000     0.870000000
H     0.526000000    -7.087000000     0.441000000
H     0.971000000    -7.589000000     1.797000000
O    -0.513000000     3.265000000    -4.256000000
H     0.404000000     3.049000000    -4.086000000
H    -0.959000000     3.085000000    -3.428000000
O     5.047000000    -4.371000000    -1.963000000
H     5.676000000    -3.765000000    -1.570000000
H     5.540000000    -5.183000000    -2.084000000
O     2.065000000     1.805000000    -4.546000000
H     2.990000000     1.575000000    -4.455000000
H     1.696000000     1.105000000    -5.084000000
O    -4.369000000     1.263000000     1.391000000
H    -5.140000000     1.074000000     0.856000000
H    -3.778000000     1.731000000     0.801000000
O    -2.119000000    -1.404000000    -0.921000000
H    -1.636000000    -2.150000000    -1.274000000
H    -1.513000000    -0.998000000    -0.301000000
O     6.867000000    -1.748000000     1.883000000
H     6.448000000    -1.324000000     2.632000000
H     7.602000000    -2.231000000     2.261000000
O    -3.708000000    -1.741000000     1.626000000
H    -3.945000000    -0.909000000     2.035000000
H    -3.259000000    -1.491000000     0.819000000
O    -0.465000000    -3.283000000    -2.351000000
H    -0.886000000    -3.920000000    -2.929000000
H     0.364000000    -3.694000000    -2.106000000
O     0.592000000     4.363000000     3.097000000
H     0.980000000     3.759000000     2.464000000
H    -0.243000000     4.618000000     2.704000000
O     2.724000000    -1.346000000     4.918000000
H     3.103000000    -2.142000000     5.292000000
H     1.780000000    -1.454000000     5.031000000
O     5.077000000     1.219000000    -0.943000000
H     4.355000000     1.824000000    -1.114000000
H     5.078000000     1.110000000     0.008000000
O     2.919000000     3.007000000    -1.898000000
H     3.019000000     2.407000000    -2.636000000
H     2.308000000     3.674000000    -2.212000000
O    -1.422000000     2.059000000    -6.305000000
H    -1.228000000     2.557000000    -5.511000000
H    -1.011000000     2.560000000    -7.009000000
O    -0.968000000    -6.377000000    -0.173000000
H    -1.064000000    -6.892000000    -0.974000000
H    -1.834000000    -5.996000000    -0.028000000
O    -5.508000000    -0.169000000     3.818000000
H    -4.907000000     0.469000000     3.433000000
H    -6.291000000     0.339000000     4.032000000
O     4.840000000     0.857000000     1.613000000
H     5.202000000     0.265000000     2.272000000
H     4.689000000     1.677000000     2.084000000
O     0.852000000     4.996000000    -2.368000000
H    -0.023000000     4.869000000    -2.000000000
H     0.698000000     5.434000000    -3.205000000
O     0.173000000    -0.194000000    -6.670000000
H    -0.607000000     0.360000000    -6.709000000
H     0.607000000    -0.056000000    -7.512000000
O     5.043000000    -3.439000000     4.664000000
H     4.694000000    -4.250000000     4.294000000
H     5.811000000    -3.242000000     4.127000000
O     2.077000000     2.282000000     1.055000000
H     1.528000000     1.528000000     0.844000000
H     2.433000000     2.563000000     0.213000000
O     5.453000000    -0.556000000     3.912000000
H     5.791000000    -0.105000000     4.685000000
H     4.537000000    -0.739000000     4.122000000
O     5.528000000    -4.351000000     1.455000000
H     5.665000000    -3.476000000     1.091000000
H     4.576000000    -4.449000000     1.491000000
O    -4.234000000     4.133000000    -5.554000000
H    -3.955000000     4.963000000    -5.169000000
H    -3.908000000     3.467000000    -4.949000000
O     6.146000000    -0.856000000    -2.527000000
H     5.527000000    -0.271000000    -2.090000000
H     5.854000000    -0.877000000    -3.438000000
O    -1.829000000     5.501000000    -1.525000000
H    -2.502000000     5.681000000    -2.182000000
H    -2.014000000     4.609000000    -1.231000000
O    -0.377000000    -1.192000000     5.459000000
H    -0.971000000    -0.947000000     6.169000000
H    -0.933000000    -1.650000000     4.829000000
O    -1.752000000     4.652000000     1.639000000
H    -2.244000000     4.154000000     0.986000000
H    -2.098000000     5.542000000     1.573000000
O    -6.813000000     0.911000000    -0.342000000
H    -7.703000000     0.821000000    -0.682000000
H    -6.323000000     0.204000000    -0.762000000
