158
-3003.26427
C     0.770000000     1.117000000    -0.606000000
H     1.465000000     1.818000000    -1.061000000
C     0.606000000    -0.188000000    -1.208000000
H     1.102000000    -0.452000000    -2.138000000
C    -0.262000000    -1.080000000    -0.547000000
H    -0.405000000    -2.020000000    -1.001000000
C    -0.898000000    -0.732000000     0.667000000
H    -1.652000000    -1.406000000     1.065000000
C    -0.659000000     0.490000000     1.310000000
H    -1.248000000     0.693000000     2.201000000
C     0.222000000     1.425000000     0.634000000
C     0.530000000     2.765000000     1.194000000
O     1.442000000     3.445000000     0.748000000
O    -0.074000000     3.202000000     2.151000000
O    -0.712000000    -4.260000000     1.896000000
H    -1.413000000    -4.190000000     1.248000000
H     0.092000000    -4.135000000     1.393000000
O    -5.160000000    -3.898000000    -2.388000000
H    -5.190000000    -4.843000000    -2.537000000
H    -4.282000000    -3.639000000    -2.669000000
O     5.161000000     0.781000000     3.409000000
H     5.017000000    -0.165000000     3.395000000
H     4.281000000     1.157000000     3.399000000
O    -4.152000000     2.716000000    -2.373000000
H    -3.645000000     2.479000000    -3.149000000
H    -3.848000000     2.114000000    -1.694000000
O     3.323000000    -0.213000000    -5.045000000
H     3.453000000     0.330000000    -5.823000000
H     3.250000000    -1.104000000    -5.385000000
O     2.636000000     4.106000000    -4.037000000
H     2.815000000     4.330000000    -4.950000000
H     3.148000000     3.312000000    -3.880000000
O     2.875000000     4.688000000     6.078000000
H     1.966000000     4.971000000     5.976000000
H     3.247000000     4.757000000     5.199000000
O    -4.503000000     3.903000000     0.423000000
H    -3.549000000     3.914000000     0.498000000
H    -4.802000000     3.464000000     1.220000000
O    -3.077000000    -6.000000000    -2.505000000
H    -2.580000000    -5.273000000    -2.129000000
H    -2.478000000    -6.745000000    -2.466000000
O     5.132000000    -2.372000000    -2.993000000
H     4.214000000    -2.173000000    -2.807000000
H     5.561000000    -2.346000000    -2.137000000
O     3.093000000    -3.562000000    -5.340000000
H     2.560000000    -3.348000000    -4.574000000
H     3.950000000    -3.791000000    -4.979000000
O     2.429000000     1.926000000     3.537000000
H     2.058000000     1.099000000     3.228000000
H     1.803000000     2.591000000     3.251000000
O     5.966000000     4.998000000    -0.672000000
H     5.657000000     4.545000000     0.113000000
H     5.168000000     5.200000000    -1.161000000
O     0.025000000     0.364000000     5.708000000
H    -0.036000000    -0.574000000     5.528000000
H     0.922000000     0.490000000     6.020000000
O     2.268000000    -3.433000000    -2.751000000
H     1.348000000    -3.683000000    -2.676000000
H     2.748000000    -4.258000000    -2.672000000
O    -3.022000000    -6.078000000     0.688000000
H    -2.479000000    -5.651000000     0.024000000
H    -3.859000000    -6.231000000     0.250000000
O    -2.952000000    -1.962000000    -2.708000000
H    -3.518000000    -1.227000000    -2.473000000
H    -2.440000000    -1.641000000    -3.451000000
O     0.173000000    -4.957000000    -2.922000000
H    -0.134000000    -5.239000000    -3.784000000
H     0.659000000    -5.708000000    -2.583000000
O     0.569000000     5.619000000     5.235000000
H     0.545000000     6.503000000     5.602000000
H    -0.292000000     5.253000000     5.434000000
O    -1.152000000    -1.635000000    -5.375000000
H    -0.208000000    -1.626000000    -5.534000000
H    -1.522000000    -2.060000000    -6.148000000
O     2.979000000     7.323000000     2.949000000
H     3.421000000     6.552000000     3.305000000
H     2.090000000     7.023000000     2.759000000
O     4.450000000     0.772000000    -0.663000000
H     3.802000000     0.088000000    -0.490000000
H     4.189000000     1.141000000    -1.507000000
O     1.865000000    -4.300000000     0.623000000
H     2.302000000    -4.947000000     0.069000000
H     2.087000000    -4.562000000     1.517000000
O    -3.252000000     0.836000000    -0.882000000
H    -3.914000000     0.423000000    -0.328000000
H    -2.424000000     0.455000000    -0.591000000
O    -1.337000000     2.152000000     4.380000000
H    -0.879000000     2.513000000     3.622000000
H    -0.781000000     1.430000000     4.674000000
O     1.746000000    -0.945000000     2.566000000
H     1.676000000    -1.266000000     1.667000000
H     0.987000000    -1.319000000     3.014000000
O    -2.018000000     6.817000000    -0.070000000
H    -2.012000000     6.013000000     0.449000000
H    -1.485000000     6.611000000    -0.838000000
O     4.237000000     4.719000000     3.601000000
H     5.102000000     4.454000000     3.914000000
H     4.072000000     4.152000000     2.848000000
O     1.116000000    -5.964000000     2.998000000
H     0.585000000    -5.175000000     2.892000000
H     1.951000000    -5.646000000     3.342000000
O     2.538000000    -6.690000000    -0.567000000
H     1.883000000    -7.022000000    -1.182000000
H     2.837000000    -7.466000000    -0.094000000
O    -4.289000000     2.215000000     4.542000000
H    -3.392000000     2.178000000     4.210000000
H    -4.356000000     1.468000000     5.136000000
O     3.156000000    -1.908000000    -0.407000000
H     3.385000000    -2.634000000     0.174000000
H     2.601000000    -2.305000000    -1.078000000
O    -1.662000000    -4.248000000    -0.967000000
H    -2.173000000    -3.475000000    -1.207000000
H    -1.017000000    -4.336000000    -1.669000000
O     2.583000000     0.915000000     6.172000000
H     2.681000000     1.327000000     5.313000000
H     3.212000000     1.372000000     6.730000000
O     3.351000000     5.959000000    -1.080000000
H     2.883000000     6.201000000    -1.879000000
H     2.813000000     5.273000000    -0.686000000
O    -5.957000000    -3.313000000     0.448000000
H    -5.925000000    -3.966000000     1.147000000
H    -5.518000000    -3.733000000    -0.292000000
O     0.954000000     7.959000000     0.615000000
H     0.564000000     7.439000000     1.318000000
H     1.394000000     8.679000000     1.067000000
O    -2.103000000     4.757000000     1.800000000
H    -2.466000000     4.775000000     2.686000000
H    -1.388000000     4.123000000     1.848000000
O     6.683000000     2.999000000     1.649000000
H     6.935000000     2.826000000     2.555000000
H     5.726000000     3.024000000     1.667000000
O    -0.345000000    -2.434000000     3.952000000
H    -0.385000000    -2.777000000     4.845000000
H    -0.798000000    -3.090000000     3.423000000
O    -2.693000000     1.031000000    -4.230000000
H    -2.042000000     1.085000000    -4.929000000
H    -3.215000000     0.258000000    -4.448000000
O     0.876000000     5.864000000     2.478000000
H     0.925000000     4.992000000     2.086000000
H     0.881000000     5.704000000     3.421000000
O     0.201000000     5.602000000    -0.894000000
H     0.637000000     5.044000000    -0.250000000
H     0.470000000     6.491000000    -0.662000000
O     3.780000000     1.644000000    -3.240000000
H     3.485000000     0.983000000    -3.868000000
H     4.725000000     1.704000000    -3.382000000
O     0.112000000     5.007000000    -3.540000000
H     0.093000000     5.005000000    -2.583000000
H     0.908000000     4.524000000    -3.765000000
O    -5.075000000    -0.461000000     0.327000000
H    -5.817000000    -0.261000000     0.898000000
H    -5.104000000    -1.412000000     0.220000000
O     4.160000000     3.142000000     1.230000000
H     3.289000000     3.410000000     0.935000000
H     4.270000000     2.259000000     0.878000000
O     0.027000000     1.220000000    -4.917000000
H    -0.315000000     0.333000000    -5.027000000
H     0.150000000     1.313000000    -3.972000000
