158
-3012.17023
C    -0.876000000     1.150000000    -0.229000000
H    -1.340000000     2.091000000    -0.512000000
C     0.113000000     1.108000000     0.683000000
H     0.357000000     2.005000000     1.245000000
C     0.786000000    -0.154000000     0.928000000
H     1.552000000    -0.287000000     1.628000000
C     0.387000000    -1.212000000     0.228000000
H     0.927000000    -2.141000000     0.391000000
C    -0.506000000    -1.113000000    -0.828000000
H    -0.738000000    -1.995000000    -1.419000000
C    -1.170000000     0.074000000    -1.055000000
C    -1.942000000     0.293000000    -2.399000000
O    -1.782000000    -0.532000000    -3.312000000
O    -2.397000000     1.407000000    -2.580000000
O     6.716000000     1.440000000     4.768000000
H     6.101000000     0.804000000     4.402000000
H     6.972000000     1.982000000     4.021000000
O    -5.455000000     4.904000000    -3.718000000
H    -6.213000000     5.001000000    -3.142000000
H    -4.913000000     4.240000000    -3.291000000
O     1.532000000     1.236000000     7.643000000
H     0.583000000     1.119000000     7.666000000
H     1.763000000     1.138000000     6.719000000
O     6.992000000    -1.001000000     1.100000000
H     7.493000000    -0.861000000     0.297000000
H     6.774000000    -0.120000000     1.403000000
O     3.271000000     2.165000000     3.791000000
H     3.101000000     1.335000000     4.237000000
H     3.333000000     2.808000000     4.497000000
O     3.686000000     2.027000000     1.257000000
H     3.357000000     2.131000000     2.149000000
H     3.984000000     2.902000000     1.008000000
O    -2.604000000    -4.564000000    -5.449000000
H    -2.837000000    -4.367000000    -4.542000000
H    -3.053000000    -3.892000000    -5.962000000
O    -1.426000000     3.262000000    -4.083000000
H    -1.761000000     4.039000000    -3.634000000
H    -1.772000000     2.526000000    -3.579000000
O     0.789000000     0.828000000    -3.731000000
H    -0.091000000     0.457000000    -3.793000000
H     0.808000000     1.257000000    -2.875000000
O    -1.917000000     3.206000000     2.780000000
H    -1.910000000     3.407000000     3.715000000
H    -1.414000000     2.394000000     2.705000000
O     0.090000000    -2.292000000    -4.103000000
H     0.911000000    -1.806000000    -4.028000000
H    -0.555000000    -1.744000000    -3.656000000
O    -3.947000000     2.972000000     0.880000000
H    -4.349000000     2.259000000     1.378000000
H    -3.067000000     3.054000000     1.247000000
O    -1.115000000     0.472000000     3.581000000
H    -0.674000000     1.304000000     3.756000000
H    -0.410000000    -0.121000000     3.321000000
O     0.601000000     3.184000000    -2.046000000
H     0.231000000     3.554000000    -2.847000000
H     0.949000000     3.939000000    -1.572000000
O    -5.247000000     0.809000000     2.091000000
H    -4.948000000     0.020000000     1.639000000
H    -6.016000000     1.091000000     1.596000000
O     1.737000000    -5.916000000     0.417000000
H     1.101000000    -5.526000000     1.018000000
H     2.055000000    -5.179000000    -0.105000000
O    -2.069000000     3.839000000    -6.920000000
H    -2.094000000     2.927000000    -7.209000000
H    -1.779000000     3.793000000    -6.009000000
O    -4.442000000     6.013000000     0.240000000
H    -3.695000000     6.396000000     0.699000000
H    -4.491000000     5.115000000     0.568000000
O     2.619000000     2.015000000    -5.463000000
H     1.961000000     1.533000000    -4.962000000
H     2.111000000     2.625000000    -5.999000000
O     2.774000000    -1.278000000    -3.742000000
H     3.190000000    -0.941000000    -4.535000000
H     2.515000000    -0.495000000    -3.256000000
O     0.478000000    -1.649000000     5.097000000
H     0.907000000    -2.103000000     5.823000000
H    -0.448000000    -1.630000000     5.340000000
O    -6.937000000     1.443000000    -4.433000000
H    -6.054000000     1.348000000    -4.790000000
H    -7.256000000     2.268000000    -4.799000000
O     5.807000000    -3.406000000    -1.265000000
H     5.297000000    -2.959000000    -0.589000000
H     6.315000000    -2.710000000    -1.681000000
O    -1.208000000    -4.257000000     1.027000000
H    -1.844000000    -4.512000000     0.359000000
H    -1.723000000    -4.173000000     1.829000000
O    -5.675000000    -0.265000000    -1.747000000
H    -6.415000000    -0.024000000    -1.190000000
H    -5.431000000     0.549000000    -2.188000000
O    -4.044000000     3.362000000    -1.820000000
H    -3.381000000     2.691000000    -1.983000000
H    -4.054000000     3.463000000    -0.868000000
O     2.426000000    -4.664000000    -1.932000000
H     2.685000000    -3.915000000    -2.470000000
H     1.792000000    -5.138000000    -2.471000000
O    -5.080000000     2.552000000    -6.931000000
H    -4.789000000     3.451000000    -6.778000000
H    -4.591000000     2.030000000    -6.295000000
O     5.331000000    -0.982000000     3.898000000
H     5.269000000    -1.285000000     2.992000000
H     5.861000000    -1.647000000     4.337000000
O    -2.486000000     0.609000000     5.845000000
H    -3.360000000     0.281000000     5.634000000
H    -1.999000000     0.538000000     5.024000000
O     1.928000000     5.913000000     2.818000000
H     1.636000000     6.764000000     2.493000000
H     1.503000000     5.823000000     3.671000000
O    -2.279000000     5.471000000    -2.054000000
H    -3.156000000     5.762000000    -1.801000000
H    -1.863000000     5.222000000    -1.229000000
O    -1.934000000    -1.246000000    -6.707000000
H    -2.547000000    -1.941000000    -6.947000000
H    -1.597000000    -1.509000000    -5.850000000
O     6.345000000     1.671000000     1.897000000
H     6.430000000     2.622000000     1.969000000
H     5.402000000     1.511000000     1.940000000
O    -2.591000000    -2.644000000     4.468000000
H    -3.395000000    -2.548000000     4.978000000
H    -2.732000000    -2.101000000     3.693000000
O    -3.279000000    -3.942000000    -1.299000000
H    -3.192000000    -3.342000000    -2.040000000
H    -4.205000000    -3.894000000    -1.060000000
O     3.339000000     1.756000000    -1.314000000
H     3.714000000     1.727000000    -0.434000000
H     2.471000000     2.142000000    -1.192000000
O    -3.915000000    -2.046000000    -3.162000000
H    -3.100000000    -1.554000000    -3.066000000
H    -4.594000000    -1.448000000    -2.847000000
O     2.634000000    -0.095000000     4.983000000
H     3.470000000    -0.463000000     4.697000000
H     2.000000000    -0.797000000     4.833000000
O     1.683000000     5.231000000    -0.497000000
H     1.965000000     6.144000000    -0.549000000
H     2.438000000     4.768000000    -0.134000000
O     1.717000000    -4.270000000    -5.244000000
H     1.210000000    -3.587000000    -4.805000000
H     1.467000000    -5.079000000    -4.798000000
O    -1.134000000     4.831000000     0.397000000
H    -1.196000000     4.311000000     1.198000000
H    -0.230000000     5.147000000     0.386000000
O     0.777000000    -5.346000000     3.583000000
H     0.848000000    -4.498000000     4.022000000
H    -0.102000000    -5.345000000     3.202000000
O    -3.000000000    -1.404000000     2.128000000
H    -2.850000000    -1.201000000     1.204000000
H    -2.584000000    -0.683000000     2.602000000
O     0.658000000     2.559000000     3.925000000
H     0.692000000     3.494000000     4.130000000
H     1.503000000     2.374000000     3.513000000
O    -4.219000000     1.130000000    -4.564000000
H    -3.685000000     1.316000000    -3.791000000
H    -4.260000000     0.175000000    -4.602000000
O     4.023000000    -1.186000000    -0.188000000
H     4.799000000    -0.664000000    -0.394000000
H     3.296000000    -0.692000000    -0.565000000
O    -1.784000000     1.238000000    -7.876000000
H    -2.003000000     0.379000000    -7.515000000
H    -1.972000000     1.161000000    -8.811000000
