158
-3015.28183
C     0.385000000     1.357000000    -0.512000000
H     0.807000000     2.247000000    -0.973000000
C     0.090000000     0.231000000    -1.341000000
H     0.376000000     0.263000000    -2.389000000
C    -0.328000000    -0.973000000    -0.756000000
H    -0.385000000    -1.811000000    -1.399000000
C    -0.414000000    -1.033000000     0.645000000
H    -0.740000000    -1.970000000     1.090000000
C    -0.122000000     0.071000000     1.424000000
H    -0.273000000    -0.001000000     2.498000000
C     0.242000000     1.303000000     0.870000000
C     0.640000000     2.483000000     1.781000000
O     0.664000000     3.626000000     1.385000000
O     1.105000000     2.263000000     2.893000000
O    -2.393000000    -4.225000000    -0.924000000
H    -3.141000000    -4.702000000    -0.564000000
H    -2.497000000    -4.298000000    -1.873000000
O    -1.459000000     0.075000000    -4.393000000
H    -2.229000000    -0.359000000    -4.026000000
H    -1.518000000     0.976000000    -4.074000000
O     1.514000000     5.890000000     2.863000000
H     0.718000000     6.305000000     3.195000000
H     1.199000000     5.190000000     2.292000000
O    -3.274000000    -6.827000000    -2.774000000
H    -3.082000000    -5.975000000    -3.166000000
H    -2.436000000    -7.290000000    -2.784000000
O    -5.783000000    -3.521000000    -2.880000000
H    -5.537000000    -3.850000000    -2.016000000
H    -5.923000000    -4.309000000    -3.406000000
O     2.591000000     3.194000000     4.963000000
H     2.173000000     3.467000000     4.146000000
H     2.746000000     2.256000000     4.849000000
O     5.586000000     2.145000000    -1.325000000
H     5.220000000     2.949000000    -1.692000000
H     5.254000000     1.450000000    -1.894000000
O    -4.070000000     2.118000000     0.967000000
H    -3.726000000     1.974000000     1.849000000
H    -3.576000000     1.512000000     0.415000000
O    -2.484000000     5.905000000     4.879000000
H    -2.849000000     5.913000000     3.994000000
H    -1.695000000     5.368000000     4.808000000
O     4.316000000     0.151000000     5.759000000
H     4.613000000    -0.103000000     4.885000000
H     4.174000000    -0.678000000     6.215000000
O     0.558000000     2.652000000     7.229000000
H     0.021000000     2.223000000     7.895000000
H     1.444000000     2.329000000     7.392000000
O    -3.076000000     0.594000000    -1.152000000
H    -2.173000000     0.434000000    -0.878000000
H    -3.288000000    -0.148000000    -1.718000000
O    -6.276000000    -2.156000000     0.749000000
H    -5.734000000    -1.439000000     0.420000000
H    -6.934000000    -1.727000000     1.296000000
O    -0.769000000     2.937000000     4.759000000
H    -0.224000000     2.579000000     4.058000000
H    -0.228000000     2.860000000     5.545000000
O    -2.127000000     4.280000000    -1.150000000
H    -1.988000000     4.372000000    -0.207000000
H    -2.597000000     3.451000000    -1.242000000
O     3.051000000    -5.480000000    -3.153000000
H     2.443000000    -5.462000000    -2.413000000
H     2.502000000    -5.301000000    -3.917000000
O    -3.194000000    -4.057000000    -3.677000000
H    -4.070000000    -3.674000000    -3.725000000
H    -2.898000000    -4.092000000    -4.587000000
O    -5.098000000    -4.448000000    -0.443000000
H    -5.488000000    -3.740000000     0.069000000
H    -5.552000000    -5.237000000    -0.147000000
O     1.554000000     0.242000000     4.643000000
H     1.465000000     0.727000000     5.463000000
H     1.267000000     0.858000000     3.969000000
O     2.142000000    -2.026000000    -5.397000000
H     2.237000000    -2.889000000    -4.994000000
H     2.885000000    -1.959000000    -5.997000000
O     0.134000000    -3.109000000     3.131000000
H     0.937000000    -2.845000000     3.581000000
H    -0.319000000    -3.672000000     3.759000000
O     2.303000000     6.060000000    -3.253000000
H     2.484000000     6.262000000    -4.171000000
H     3.132000000     5.725000000    -2.913000000
O     1.709000000    -6.112000000    -0.804000000
H     2.429000000    -6.223000000    -0.182000000
H     1.090000000    -5.537000000    -0.354000000
O    -3.292000000    -1.415000000    -3.039000000
H    -3.097000000    -2.351000000    -3.082000000
H    -4.183000000    -1.340000000    -3.381000000
O    -3.170000000     1.101000000     3.566000000
H    -2.905000000     0.277000000     3.976000000
H    -2.634000000     1.766000000     3.998000000
O    -1.067000000    -7.037000000     1.754000000
H    -0.659000000    -6.209000000     1.500000000
H    -1.760000000    -7.170000000     1.108000000
O     2.425000000     2.808000000    -2.815000000
H     2.561000000     2.073000000    -3.413000000
H     3.143000000     3.410000000    -3.009000000
O     2.653000000    -0.603000000     0.586000000
H     1.735000000    -0.332000000     0.617000000
H     2.783000000    -0.907000000    -0.312000000
O     2.724000000    -2.282000000     4.260000000
H     3.091000000    -2.547000000     5.104000000
H     2.304000000    -1.440000000     4.436000000
O     4.083000000     5.097000000     2.022000000
H     4.066000000     4.154000000     2.187000000
H     3.304000000     5.432000000     2.466000000
O    -0.744000000    -7.204000000    -2.337000000
H    -0.178000000    -7.930000000    -2.598000000
H    -0.161000000    -6.601000000    -1.875000000
O     3.167000000    -1.191000000    -1.935000000
H     2.412000000    -1.700000000    -2.231000000
H     3.248000000    -0.486000000    -2.577000000
O    -3.051000000    -7.293000000     0.047000000
H    -3.147000000    -6.967000000    -0.848000000
H    -3.650000000    -8.038000000     0.096000000
O     0.788000000     4.012000000    -4.920000000
H     1.494000000     3.562000000    -5.385000000
H     1.211000000     4.392000000    -4.151000000
O     3.612000000    -2.924000000     1.574000000
H     3.149000000    -2.149000000     1.255000000
H     3.234000000    -3.089000000     2.438000000
O    -0.176000000    -4.617000000     0.658000000
H    -0.911000000    -4.229000000     0.182000000
H     0.050000000    -3.965000000     1.321000000
O     1.452000000    -4.913000000    -5.132000000
H     1.793000000    -5.719000000    -5.521000000
H     0.853000000    -4.564000000    -5.793000000
O    -1.388000000     5.209000000     1.406000000
H    -0.638000000     4.616000000     1.454000000
H    -1.000000000     6.075000000     1.275000000
O     1.370000000     5.280000000     6.358000000
H     0.652000000     4.965000000     6.907000000
H     1.938000000     4.518000000     6.247000000
O     3.149000000     0.624000000    -4.166000000
H     4.095000000     0.486000000    -4.131000000
H     2.907000000     0.392000000    -5.063000000
O    -1.705000000    -1.047000000     4.393000000
H    -0.961000000    -1.534000000     4.039000000
H    -1.932000000    -1.510000000     5.200000000
O     5.080000000    -3.581000000    -2.681000000
H     4.359000000    -4.199000000    -2.805000000
H     4.779000000    -2.997000000    -1.986000000
O     2.909000000     7.316000000    -0.540000000
H     3.104000000     7.363000000    -1.476000000
H     2.688000000     6.397000000    -0.388000000
O     0.551000000    -0.059000000    -6.169000000
H     1.110000000    -0.803000000    -5.947000000
H    -0.021000000     0.047000000    -5.408000000
O    -0.541000000     5.973000000    -2.937000000
H     0.377000000     6.056000000    -2.680000000
H    -0.914000000     5.363000000    -2.300000000
O    -1.630000000     3.032000000    -4.161000000
H    -0.787000000     3.169000000    -4.593000000
H    -1.492000000     3.334000000    -3.264000000
O     5.129000000     0.451000000     0.959000000
H     5.192000000     1.185000000     0.348000000
H     4.296000000     0.031000000     0.744000000
O     1.806000000     4.692000000    -0.677000000
H     1.430000000     4.445000000     0.168000000
H     1.714000000     3.909000000    -1.219000000
