158
-3014.18649
C     0.908000000     1.190000000    -0.056000000
H     1.438000000     2.133000000    -0.159000000
C     0.918000000     0.224000000    -1.006000000
H     1.357000000     0.380000000    -1.989000000
C     0.043000000    -0.888000000    -0.884000000
H     0.051000000    -1.598000000    -1.698000000
C    -0.658000000    -0.976000000     0.320000000
H    -1.244000000    -1.869000000     0.518000000
C    -0.625000000    -0.051000000     1.300000000
H    -1.175000000    -0.288000000     2.207000000
C     0.115000000     1.119000000     1.090000000
C     0.045000000     2.244000000     2.083000000
O     0.807000000     3.169000000     2.084000000
O    -0.854000000     2.209000000     2.885000000
O     1.139000000    -3.946000000     1.824000000
H     0.683000000    -4.060000000     0.990000000
H     1.918000000    -4.498000000     1.749000000
O    -3.832000000     0.505000000    -2.982000000
H    -3.161000000     0.976000000    -2.486000000
H    -4.007000000     1.065000000    -3.738000000
O    -5.120000000    -2.342000000    -4.242000000
H    -4.382000000    -2.109000000    -4.804000000
H    -5.209000000    -1.600000000    -3.644000000
O     3.632000000     2.206000000    -4.794000000
H     4.445000000     1.717000000    -4.669000000
H     3.870000000     2.919000000    -5.386000000
O    -3.602000000    -1.565000000     2.785000000
H    -2.939000000    -1.516000000     3.474000000
H    -4.064000000    -0.728000000     2.837000000
O     2.890000000     5.314000000    -4.550000000
H     3.125000000     4.830000000    -5.342000000
H     2.646000000     4.637000000    -3.920000000
O    -1.605000000    -1.869000000     4.663000000
H    -1.489000000    -1.619000000     5.580000000
H    -0.718000000    -2.042000000     4.348000000
O    -5.228000000     0.363000000     3.413000000
H    -6.001000000     0.586000000     2.894000000
H    -5.582000000    -0.012000000     4.220000000
O    -3.285000000    -1.313000000    -6.293000000
H    -3.173000000    -1.844000000    -7.082000000
H    -2.882000000    -0.473000000    -6.511000000
O    -3.998000000     4.583000000     4.677000000
H    -3.982000000     5.186000000     5.420000000
H    -4.067000000     3.715000000     5.075000000
O     3.030000000    -2.046000000    -2.681000000
H     2.228000000    -2.306000000    -3.134000000
H     3.051000000    -2.595000000    -1.897000000
O     2.243000000    -1.341000000    -6.640000000
H     1.899000000    -1.180000000    -5.761000000
H     2.324000000    -0.470000000    -7.029000000
O     2.303000000     2.767000000     4.654000000
H     2.817000000     2.127000000     4.161000000
H     1.431000000     2.726000000     4.262000000
O     3.509000000     5.611000000    -1.069000000
H     3.337000000     4.868000000    -0.490000000
H     2.652000000     6.019000000    -1.195000000
O     0.642000000    -2.346000000    -3.868000000
H    -0.196000000    -1.947000000    -3.632000000
H     0.581000000    -3.243000000    -3.539000000
O    -0.656000000    -7.046000000     0.686000000
H    -0.417000000    -6.164000000     0.401000000
H    -1.153000000    -6.911000000     1.493000000
O    -2.087000000    -1.371000000    -3.885000000
H    -2.578000000    -0.771000000    -3.324000000
H    -2.565000000    -1.369000000    -4.715000000
O     1.228000000    -4.814000000    -2.837000000
H     0.536000000    -5.188000000    -3.382000000
H     2.029000000    -5.241000000    -3.140000000
O    -0.363000000     3.849000000     7.030000000
H    -1.017000000     3.758000000     7.723000000
H    -0.557000000     3.135000000     6.423000000
O    -3.129000000    -4.548000000     2.667000000
H    -2.778000000    -3.661000000     2.601000000
H    -4.079000000    -4.430000000     2.679000000
O    -2.772000000    -3.335000000    -1.838000000
H    -3.260000000    -3.712000000    -2.570000000
H    -2.261000000    -2.627000000    -2.229000000
O     1.727000000     7.221000000     4.515000000
H     2.564000000     6.808000000     4.728000000
H     1.132000000     6.487000000     4.361000000
O     4.317000000     1.063000000     0.407000000
H     5.036000000     0.559000000     0.788000000
H     4.095000000     0.593000000    -0.397000000
O     3.221000000    -3.942000000    -0.515000000
H     2.741000000    -4.766000000    -0.432000000
H     3.993000000    -4.058000000     0.039000000
O    -5.299000000     2.351000000     0.536000000
H    -4.961000000     1.496000000     0.267000000
H    -4.756000000     2.598000000     1.285000000
O    -0.927000000     1.717000000     5.532000000
H    -0.812000000     1.864000000     4.593000000
H    -0.890000000     0.766000000     5.632000000
O     2.647000000     0.098000000     3.803000000
H     1.951000000    -0.559000000     3.762000000
H     2.891000000     0.246000000     2.889000000
O    -2.989000000     5.351000000     0.766000000
H    -2.935000000     4.577000000     1.327000000
H    -2.135000000     5.396000000     0.337000000
O     3.523000000     5.330000000     5.828000000
H     4.392000000     5.577000000     5.513000000
H     3.302000000     4.543000000     5.330000000
O    -4.051000000     2.195000000     5.655000000
H    -3.162000000     1.852000000     5.750000000
H    -4.458000000     1.628000000     5.001000000
O     2.894000000    -1.306000000     1.405000000
H     2.558000000    -2.186000000     1.238000000
H     2.315000000    -0.730000000     0.906000000
O    -0.343000000    -4.539000000    -0.457000000
H    -1.220000000    -4.223000000    -0.673000000
H     0.135000000    -4.505000000    -1.286000000
O     0.215000000    -5.450000000    -5.322000000
H    -0.420000000    -5.563000000    -6.029000000
H     0.993000000    -5.096000000    -5.753000000
O    -5.171000000    -3.579000000     0.503000000
H    -4.505000000    -3.060000000     0.052000000
H    -5.105000000    -4.449000000     0.108000000
O    -1.616000000     7.772000000     2.905000000
H    -1.631000000     6.864000000     2.601000000
H    -1.994000000     8.273000000     2.181000000
O    -3.448000000     3.261000000     2.427000000
H    -3.528000000     3.835000000     3.189000000
H    -2.648000000     2.761000000     2.585000000
O     6.433000000     3.713000000     1.078000000
H     5.528000000     4.021000000     1.122000000
H     6.401000000     2.956000000     0.494000000
O     1.410000000    -2.317000000     4.009000000
H     1.735000000    -2.921000000     4.676000000
H     1.335000000    -2.851000000     3.218000000
O     2.666000000    -4.388000000    -5.868000000
H     3.145000000    -4.759000000    -5.127000000
H     2.539000000    -3.468000000    -5.635000000
O    -1.740000000     1.668000000    -1.638000000
H    -1.636000000     2.615000000    -1.739000000
H    -0.888000000     1.365000000    -1.326000000
O     0.188000000     5.179000000     3.620000000
H     0.435000000     4.541000000     2.950000000
H    -0.148000000     4.650000000     4.343000000
O    -0.085000000     4.779000000    -0.217000000
H     0.237000000     4.425000000     0.611000000
H     0.506000000     5.506000000    -0.414000000
O     4.652000000     0.157000000    -2.485000000
H     4.965000000     0.324000000    -3.374000000
H     4.130000000    -0.642000000    -2.561000000
O     3.720000000    -5.636000000    -3.597000000
H     4.211000000    -5.158000000    -2.928000000
H     4.312000000    -6.334000000    -3.876000000
O    -0.955000000     4.475000000    -2.742000000
H    -0.488000000     4.313000000    -1.922000000
H    -0.612000000     3.817000000    -3.347000000
O    -4.073000000    -0.206000000     0.137000000
H    -4.091000000    -0.667000000     0.975000000
H    -3.221000000    -0.428000000    -0.240000000
O     3.269000000     3.822000000     1.085000000
H     2.359000000     3.702000000     1.357000000
H     3.543000000     2.959000000     0.776000000
O     1.039000000     2.786000000    -4.140000000
H     1.757000000     2.165000000    -4.263000000
H     0.623000000     2.845000000    -5.000000000
