158
-3034.23158
C     1.305000000     0.522000000    -0.629000000
H     2.145000000     0.798000000    -1.260000000
C     0.857000000    -0.817000000    -0.633000000
H     1.535000000    -1.596000000    -0.972000000
C    -0.309000000    -1.183000000     0.063000000
H    -0.538000000    -2.235000000     0.070000000
C    -1.173000000    -0.204000000     0.575000000
H    -2.071000000    -0.500000000     1.110000000
C    -0.742000000     1.111000000     0.587000000
H    -1.361000000     1.886000000     1.031000000
C     0.436000000     1.501000000    -0.039000000
C     0.646000000     2.946000000    -0.327000000
O     1.343000000     3.309000000    -1.264000000
O     0.168000000     3.856000000     0.388000000
O    -4.162000000    -5.120000000    -2.097000000
H    -3.425000000    -5.028000000    -1.494000000
H    -3.968000000    -5.915000000    -2.593000000
O     0.635000000     7.062000000    -4.192000000
H     1.029000000     7.863000000    -3.847000000
H     0.365000000     6.574000000    -3.413000000
O    -3.650000000    -2.252000000     2.507000000
H    -4.096000000    -2.949000000     2.989000000
H    -3.936000000    -1.445000000     2.934000000
O     6.165000000     3.547000000     0.296000000
H     6.491000000     3.951000000    -0.509000000
H     5.223000000     3.718000000     0.285000000
O    -3.555000000     4.216000000     0.540000000
H    -4.138000000     3.807000000     1.179000000
H    -3.289000000     3.499000000    -0.035000000
O    -1.397000000    -4.091000000    -4.106000000
H    -1.141000000    -3.405000000    -3.489000000
H    -0.611000000    -4.627000000    -4.207000000
O    -3.102000000     2.478000000    -1.524000000
H    -2.274000000     2.117000000    -1.840000000
H    -3.422000000     1.830000000    -0.896000000
O    -0.081000000     5.111000000    -2.473000000
H    -0.950000000     5.307000000    -2.122000000
H     0.295000000     4.490000000    -1.849000000
O    -1.996000000    -5.147000000    -0.196000000
H    -2.070000000    -4.756000000     0.675000000
H    -2.103000000    -6.086000000    -0.047000000
O     0.225000000    -6.459000000    -3.594000000
H    -0.038000000    -6.741000000    -4.470000000
H     0.344000000    -7.274000000    -3.106000000
O     5.384000000     2.503000000    -3.606000000
H     5.872000000     2.110000000    -2.882000000
H     4.482000000     2.550000000    -3.290000000
O     2.239000000    -0.660000000     3.047000000
H     2.365000000     0.281000000     2.924000000
H     1.430000000    -0.729000000     3.554000000
O     4.429000000    -0.335000000    -0.512000000
H     4.333000000    -0.992000000     0.177000000
H     5.258000000     0.100000000    -0.315000000
O     3.784000000     1.791000000     1.502000000
H     3.786000000     1.941000000     0.556000000
H     4.609000000     1.337000000     1.673000000
O     0.549000000    -4.676000000    -1.077000000
H    -0.196000000    -4.910000000    -0.524000000
H     0.562000000    -5.346000000    -1.760000000
O    -1.059000000     4.295000000    -4.908000000
H    -1.942000000     4.234000000    -4.543000000
H    -0.534000000     4.677000000    -4.205000000
O    -4.648000000     0.181000000     4.162000000
H    -4.809000000     1.119000000     4.256000000
H    -5.464000000    -0.169000000     3.805000000
O     5.196000000    -0.143000000    -4.375000000
H     5.361000000    -0.567000000    -5.217000000
H     5.154000000     0.791000000    -4.582000000
O     3.694000000    -1.989000000    -2.696000000
H     4.101000000    -1.472000000    -3.391000000
H     3.655000000    -1.394000000    -1.947000000
O     1.602000000    -5.087000000     3.315000000
H     1.534000000    -4.231000000     2.892000000
H     0.766000000    -5.513000000     3.129000000
O     4.283000000     6.244000000     0.839000000
H     4.164000000     5.906000000     1.727000000
H     3.998000000     5.528000000     0.271000000
O    -3.077000000     5.876000000    -1.602000000
H    -3.759000000     6.540000000    -1.498000000
H    -3.092000000     5.387000000    -0.780000000
O    -0.407000000    -6.668000000     2.311000000
H     0.016000000    -7.449000000     1.954000000
H    -0.809000000    -6.965000000     3.128000000
O     4.202000000     6.279000000    -2.773000000
H     3.842000000     6.882000000    -2.123000000
H     4.921000000     6.764000000    -3.178000000
O     3.300000000     5.299000000     3.662000000
H     2.929000000     4.450000000     3.423000000
H     2.552000000     5.896000000     3.661000000
O     1.094000000     8.919000000     0.409000000
H     1.884000000     9.072000000    -0.108000000
H     1.321000000     8.186000000     0.982000000
O     1.926000000     0.664000000    -5.235000000
H     1.315000000     0.140000000    -4.717000000
H     2.508000000     1.063000000    -4.588000000
O    -2.781000000     4.898000000     3.262000000
H    -3.036000000     5.223000000     2.398000000
H    -1.991000000     4.383000000     3.100000000
O     3.783000000     4.366000000    -1.043000000
H     3.864000000     4.746000000    -1.918000000
H     2.875000000     4.068000000    -0.994000000
O     2.860000000     2.628000000    -3.295000000
H     2.173000000     2.596000000    -2.629000000
H     2.622000000     3.372000000    -3.849000000
O    -4.292000000    -2.455000000    -3.285000000
H    -4.952000000    -2.774000000    -3.900000000
H    -3.476000000    -2.458000000    -3.785000000
O     1.276000000    -3.371000000     6.305000000
H     2.054000000    -2.854000000     6.512000000
H     0.961000000    -3.010000000     5.477000000
O    -0.872000000    -2.634000000     4.536000000
H    -1.241000000    -3.357000000     5.044000000
H    -1.368000000    -2.639000000     3.717000000
O    -0.777000000     1.997000000    -3.182000000
H     0.015000000     1.485000000    -3.015000000
H    -0.454000000     2.850000000    -3.471000000
O     2.643000000     5.244000000    -4.936000000
H     3.223000000     5.847000000    -4.471000000
H     1.760000000     5.549000000    -4.724000000
O     2.252000000     2.536000000     3.401000000
H     2.837000000     2.141000000     4.048000000
H     2.639000000     2.306000000     2.556000000
O     3.309000000    -4.642000000    -0.276000000
H     3.567000000    -4.243000000     0.555000000
H     2.418000000    -4.327000000    -0.427000000
O     0.146000000    -0.591000000    -3.658000000
H    -0.704000000    -0.557000000    -3.219000000
H     0.470000000    -1.475000000    -3.485000000
O    -4.445000000     0.712000000     0.331000000
H    -4.315000000    -0.182000000     0.016000000
H    -5.332000000     0.714000000     0.689000000
O    -0.353000000     3.499000000     3.222000000
H    -0.225000000     3.321000000     2.290000000
H     0.435000000     3.154000000     3.642000000
O     3.726000000    -2.438000000     1.470000000
H     4.140000000    -2.760000000     2.270000000
H     3.158000000    -1.725000000     1.763000000
O    -2.332000000    -0.882000000    -2.190000000
H    -2.151000000    -0.948000000    -1.252000000
H    -3.173000000    -1.326000000    -2.303000000
O     0.249000000     6.297000000     0.838000000
H    -0.437000000     6.301000000     1.505000000
H     0.280000000     5.391000000     0.530000000
O     6.165000000    -3.532000000    -1.906000000
H     5.571000000    -2.795000000    -2.045000000
H     5.657000000    -4.301000000    -2.168000000
O    -4.062000000    -2.091000000    -0.199000000
H    -3.719000000    -2.133000000     0.693000000
H    -4.291000000    -2.996000000    -0.411000000
O    -0.443000000     8.388000000    -1.872000000
H     0.069000000     8.767000000    -1.157000000
H    -0.819000000     7.590000000    -1.501000000
O    -0.798000000     0.071000000     5.025000000
H    -1.666000000     0.136000000     5.425000000
H    -0.744000000    -0.833000000     4.715000000
O     1.187000000    -3.003000000    -3.127000000
H     2.139000000    -2.965000000    -3.224000000
H     1.049000000    -3.475000000    -2.305000000
