158
-3043.58556
C     1.267000000     0.004000000     0.710000000
H     2.188000000    -0.210000000     1.247000000
C     0.714000000    -1.053000000    -0.040000000
H     1.128000000    -2.058000000    -0.014000000
C    -0.560000000    -0.947000000    -0.589000000
H    -1.124000000    -1.799000000    -0.993000000
C    -1.210000000     0.289000000    -0.511000000
H    -2.231000000     0.348000000    -0.881000000
C    -0.495000000     1.363000000     0.008000000
H    -1.109000000     2.259000000     0.040000000
C     0.770000000     1.333000000     0.620000000
C     1.414000000     2.483000000     1.404000000
O     2.330000000     2.215000000     2.099000000
O     0.883000000     3.560000000     1.549000000
O    -4.107000000    -2.479000000    -1.845000000
H    -3.895000000    -2.062000000    -2.680000000
H    -5.064000000    -2.470000000    -1.808000000
O    -3.150000000     5.268000000    -3.864000000
H    -3.068000000     4.841000000    -3.011000000
H    -3.930000000     5.818000000    -3.782000000
O    -3.135000000    -6.167000000    -1.321000000
H    -2.448000000    -6.661000000    -0.875000000
H    -2.720000000    -5.337000000    -1.557000000
O    -5.853000000    -2.188000000     2.282000000
H    -6.101000000    -2.391000000     1.380000000
H    -5.264000000    -1.437000000     2.204000000
O     1.770000000    -3.233000000     2.469000000
H     1.539000000    -3.690000000     1.660000000
H     2.716000000    -3.354000000     2.551000000
O     6.715000000     4.090000000     0.458000000
H     6.220000000     3.407000000     0.910000000
H     6.125000000     4.844000000     0.445000000
O    -4.959000000    -5.369000000     0.523000000
H    -4.685000000    -5.629000000     1.403000000
H    -4.524000000    -5.994000000    -0.057000000
O    -4.921000000     1.949000000    -1.143000000
H    -5.795000000     1.576000000    -1.252000000
H    -5.004000000     2.540000000    -0.394000000
O    -0.871000000     1.017000000    -3.422000000
H    -0.559000000     0.410000000    -2.752000000
H    -0.256000000     1.750000000    -3.386000000
O    -2.975000000     4.364000000    -1.352000000
H    -3.105000000     5.133000000    -0.797000000
H    -3.340000000     3.638000000    -0.845000000
O    -2.122000000    -3.558000000    -3.955000000
H    -1.612000000    -3.625000000    -3.148000000
H    -2.113000000    -2.625000000    -4.168000000
O     6.693000000    -0.164000000     0.797000000
H     6.771000000    -0.185000000    -0.156000000
H     6.825000000    -1.072000000     1.069000000
O     5.958000000    -3.048000000    -1.793000000
H     5.097000000    -3.300000000    -1.457000000
H     6.526000000    -3.052000000    -1.022000000
O     2.478000000     5.086000000     3.255000000
H     2.277000000     4.472000000     2.549000000
H     2.458000000     4.552000000     4.049000000
O     2.648000000     3.138000000     5.529000000
H     3.079000000     3.522000000     6.293000000
H     3.268000000     2.483000000     5.209000000
O    -0.604000000    -4.145000000    -1.596000000
H    -0.652000000    -3.931000000    -0.664000000
H     0.302000000    -4.424000000    -1.731000000
O    -2.088000000     0.326000000     3.891000000
H    -1.929000000     1.223000000     3.596000000
H    -2.319000000    -0.151000000     3.094000000
O    -3.089000000     5.975000000     0.835000000
H    -2.134000000     5.934000000     0.777000000
H    -3.264000000     6.776000000     1.328000000
O     0.266000000     2.033000000     5.623000000
H     0.422000000     1.176000000     5.227000000
H     1.093000000     2.502000000     5.514000000
O    -3.314000000    -2.962000000     0.604000000
H    -3.841000000    -3.724000000     0.844000000
H    -3.451000000    -2.863000000    -0.338000000
O     4.722000000     3.291000000     2.479000000
H     3.979000000     2.699000000     2.364000000
H     4.327000000     4.160000000     2.552000000
O     2.495000000    -3.055000000    -3.621000000
H     3.157000000    -2.754000000    -4.244000000
H     1.747000000    -3.297000000    -4.166000000
O     2.581000000     7.665000000     4.066000000
H     1.726000000     7.763000000     3.646000000
H     2.819000000     6.751000000     3.914000000
O     1.797000000    -5.422000000    -2.340000000
H     1.840000000    -5.766000000    -3.232000000
H     2.228000000    -4.569000000    -2.391000000
O     0.202000000     7.620000000     2.144000000
H    -0.198000000     6.784000000     1.905000000
H     0.285000000     8.092000000     1.316000000
O    -3.833000000    -0.140000000     1.448000000
H    -3.601000000     0.581000000     0.862000000
H    -3.697000000    -0.928000000     0.923000000
O     4.686000000    -1.456000000     4.815000000
H     4.100000000    -2.035000000     5.302000000
H     4.174000000    -0.659000000     4.677000000
O    -0.027000000     5.077000000    -2.584000000
H    -0.968000000     4.961000000    -2.720000000
H     0.379000000     4.431000000    -3.162000000
O    -1.142000000    -7.330000000     0.027000000
H    -1.059000000    -7.861000000     0.819000000
H    -0.419000000    -7.617000000    -0.531000000
O    -5.361000000    -0.599000000    -4.407000000
H    -5.694000000    -0.329000000    -5.263000000
H    -4.636000000     0.001000000    -4.232000000
O     0.575000000    -0.731000000     4.144000000
H     0.926000000    -1.527000000     3.745000000
H    -0.328000000    -0.684000000     3.830000000
O     4.319000000    -5.012000000    -0.600000000
H     4.331000000    -5.765000000    -0.010000000
H     4.751000000    -5.324000000    -1.395000000
O    -0.388000000    -4.540000000     1.132000000
H    -0.546000000    -5.484000000     1.128000000
H    -0.934000000    -4.209000000     1.846000000
O     2.884000000     0.661000000     4.259000000
H     2.500000000     1.181000000     3.553000000
H     2.234000000    -0.019000000     4.436000000
O     3.239000000     7.369000000     0.919000000
H     4.120000000     7.065000000     1.136000000
H     2.657000000     6.779000000     1.398000000
O     1.419000000     2.778000000    -3.591000000
H     1.844000000     1.946000000    -3.382000000
H     1.872000000     3.088000000    -4.376000000
O    -1.432000000    -1.858000000     2.287000000
H    -2.048000000    -2.402000000     1.797000000
H    -0.809000000    -1.549000000     1.629000000
O    -4.819000000     3.628000000     1.283000000
H    -4.242000000     4.390000000     1.346000000
H    -5.560000000     3.841000000     1.850000000
O    -0.202000000    -4.684000000     4.116000000
H    -0.721000000    -4.223000000     4.775000000
H     0.522000000    -4.088000000     3.922000000
O    -3.139000000    -6.022000000    -4.248000000
H    -3.642000000    -5.697000000    -4.995000000
H    -2.687000000    -5.249000000    -3.910000000
O    -0.267000000     4.485000000     4.995000000
H    -0.214000000     3.549000000     5.188000000
H     0.113000000     4.909000000     5.765000000
O     6.779000000     1.575000000     2.963000000
H     6.654000000     1.124000000     2.127000000
H     6.095000000     2.245000000     2.977000000
O    -2.283000000    -0.991000000    -4.771000000
H    -2.329000000    -0.741000000    -5.694000000
H    -1.990000000    -0.197000000    -4.323000000
O    -0.468000000     5.529000000     0.481000000
H    -0.334000000     5.515000000    -0.467000000
H    -0.063000000     4.720000000     0.792000000
O     2.959000000    -0.367000000    -2.610000000
H     2.670000000    -1.271000000    -2.742000000
H     2.633000000    -0.136000000    -1.740000000
O    -3.701000000     1.598000000    -3.480000000
H    -2.797000000     1.480000000    -3.186000000
H    -4.192000000     1.776000000    -2.677000000
O    -1.527000000     2.755000000     3.099000000
H    -1.641000000     3.524000000     3.657000000
H    -0.754000000     2.954000000     2.571000000
O     0.233000000    -4.074000000    -4.957000000
H     0.235000000    -4.233000000    -5.901000000
H    -0.672000000    -3.835000000    -4.756000000
