158
-3030.84117
C     0.763000000     0.604000000     1.151000000
H     1.284000000     1.112000000     1.958000000
C     0.820000000    -0.734000000     0.818000000
H     1.558000000    -1.310000000     1.370000000
C     0.047000000    -1.225000000    -0.214000000
H     0.065000000    -2.300000000    -0.400000000
C    -0.761000000    -0.433000000    -0.923000000
H    -1.395000000    -0.833000000    -1.710000000
C    -0.911000000     0.929000000    -0.546000000
H    -1.637000000     1.598000000    -1.001000000
C    -0.105000000     1.430000000     0.411000000
C    -0.261000000     2.907000000     0.745000000
O     0.213000000     3.320000000     1.797000000
O    -0.884000000     3.698000000     0.015000000
O     2.397000000    -5.414000000     0.629000000
H     1.917000000    -6.200000000     0.365000000
H     1.723000000    -4.824000000     0.967000000
O    -5.456000000    -2.520000000    -2.911000000
H    -6.174000000    -2.369000000    -3.526000000
H    -5.834000000    -3.082000000    -2.235000000
O     1.831000000     5.394000000     0.973000000
H     2.180000000     5.848000000     1.740000000
H     1.239000000     4.734000000     1.333000000
O    -3.450000000    -6.609000000    -2.816000000
H    -2.803000000    -6.966000000    -2.208000000
H    -2.987000000    -5.906000000    -3.272000000
O    -6.137000000     3.830000000     1.102000000
H    -5.245000000     3.584000000     1.347000000
H    -6.097000000     4.776000000     0.965000000
O     3.578000000    -2.915000000     2.209000000
H     4.368000000    -3.205000000     2.667000000
H     3.028000000    -2.539000000     2.896000000
O     2.759000000     0.761000000    -0.969000000
H     2.190000000     0.487000000    -0.249000000
H     2.792000000     1.715000000    -0.899000000
O     4.440000000    -2.891000000    -0.356000000
H     3.586000000    -3.102000000     0.021000000
H     4.816000000    -2.250000000     0.246000000
O    -1.458000000     4.880000000     3.233000000
H    -0.740000000     4.478000000     2.745000000
H    -2.238000000     4.690000000     2.712000000
O     3.903000000     3.244000000     6.059000000
H     3.139000000     3.145000000     5.491000000
H     4.562000000     3.662000000     5.504000000
O    -0.274000000    -4.952000000    -4.034000000
H    -0.178000000    -5.873000000    -4.277000000
H    -0.441000000    -4.969000000    -3.092000000
O     3.844000000    -6.353000000     2.972000000
H     3.223000000    -7.062000000     3.143000000
H     3.561000000    -5.984000000     2.135000000
O    -0.520000000    -4.971000000     1.488000000
H    -0.387000000    -4.450000000     2.280000000
H    -1.280000000    -5.518000000     1.687000000
O    -0.390000000     1.544000000     5.036000000
H    -0.896000000     1.225000000     4.289000000
H    -1.049000000     1.818000000     5.673000000
O    -4.165000000     6.385000000     0.102000000
H    -3.511000000     5.813000000    -0.298000000
H    -4.272000000     7.102000000    -0.524000000
O    -3.087000000    -1.232000000    -3.437000000
H    -3.913000000    -1.561000000    -3.083000000
H    -2.949000000    -1.740000000    -4.236000000
O     5.854000000    -2.683000000     4.080000000
H     6.060000000    -2.221000000     4.892000000
H     5.799000000    -1.994000000     3.418000000
O     2.508000000     3.574000000    -0.894000000
H     2.050000000     3.768000000    -1.712000000
H     2.257000000     4.285000000    -0.304000000
O     2.603000000    -3.394000000    -4.502000000
H     2.437000000    -3.852000000    -3.678000000
H     2.047000000    -3.840000000    -5.141000000
O    -2.062000000     5.360000000    -4.715000000
H    -2.186000000     5.115000000    -3.798000000
H    -2.928000000     5.258000000    -5.109000000
O     1.356000000     6.506000000    -2.376000000
H     1.663000000     6.929000000    -1.573000000
H     0.662000000     7.081000000    -2.699000000
O    -1.136000000     7.420000000     4.127000000
H    -1.221000000     7.917000000     3.313000000
H    -1.490000000     6.556000000     3.918000000
O    -1.665000000     8.377000000     1.540000000
H    -1.505000000     7.531000000     1.120000000
H    -2.225000000     8.848000000     0.923000000
O    -4.877000000     1.272000000    -1.228000000
H    -5.095000000     0.367000000    -1.006000000
H    -4.488000000     1.218000000    -2.101000000
O     3.759000000     0.687000000     3.366000000
H     3.157000000     1.334000000     3.734000000
H     4.624000000     1.088000000     3.451000000
O     2.534000000     6.525000000     3.231000000
H     3.368000000     6.390000000     3.683000000
H     1.902000000     6.673000000     3.935000000
O    -2.554000000     3.912000000    -2.208000000
H    -2.669000000     2.988000000    -2.427000000
H    -1.839000000     3.920000000    -1.571000000
O     2.903000000     7.675000000    -0.259000000
H     2.127000000     7.405000000     0.232000000
H     3.614000000     7.149000000     0.108000000
O    -2.769000000     1.619000000    -3.409000000
H    -2.378000000     1.771000000    -4.269000000
H    -2.522000000     0.720000000    -3.190000000
O    -2.334000000    -1.163000000     1.676000000
H    -2.222000000    -0.355000000     2.176000000
H    -1.621000000    -1.151000000     1.038000000
O     0.113000000    -3.346000000     3.732000000
H     0.703000000    -2.597000000     3.658000000
H     0.442000000    -3.837000000     4.486000000
O     2.695000000    -5.240000000    -2.474000000
H     3.130000000    -5.185000000    -1.623000000
H     1.776000000    -5.403000000    -2.263000000
O     5.461000000     4.064000000    -0.007000000
H     5.346000000     5.005000000     0.124000000
H     4.570000000     3.725000000    -0.102000000
O     5.138000000    -0.513000000     0.909000000
H     4.665000000    -0.070000000     0.204000000
H     5.019000000     0.054000000     1.670000000
O    -0.026000000    -5.683000000    -1.387000000
H    -0.128000000    -5.304000000    -0.514000000
H    -0.559000000    -6.478000000    -1.367000000
O     5.116000000    -3.109000000    -2.894000000
H     4.788000000    -3.363000000    -2.031000000
H     4.386000000    -3.280000000    -3.488000000
O     1.700000000     2.969000000     3.966000000
H     1.255000000     3.337000000     3.202000000
H     0.993000000     2.630000000     4.514000000
O    -4.774000000     5.721000000    -2.781000000
H    -4.102000000     5.040000000    -2.754000000
H    -5.538000000     5.288000000    -3.162000000
O     2.291000000    -1.450000000     4.345000000
H     1.690000000    -1.205000000     5.048000000
H     2.706000000    -0.626000000     4.086000000
O    -1.006000000     6.553000000    -0.531000000
H    -0.709000000     6.380000000    -1.424000000
H    -0.737000000     5.779000000    -0.035000000
O    -4.996000000    -0.725000000     0.869000000
H    -5.217000000     0.070000000     1.354000000
H    -4.093000000    -0.918000000     1.124000000
O    -7.276000000     2.399000000    -1.532000000
H    -6.348000000     2.218000000    -1.388000000
H    -7.626000000     1.585000000    -1.893000000
O     3.424000000     0.496000000    -5.641000000
H     3.078000000     0.342000000    -4.762000000
H     3.677000000     1.419000000    -5.640000000
O    -3.412000000     3.454000000     1.025000000
H    -3.798000000     3.097000000     0.225000000
H    -2.529000000     3.717000000     0.768000000
O     2.743000000    -0.264000000    -3.268000000
H     2.837000000    -1.211000000    -3.159000000
H     2.660000000     0.073000000    -2.376000000
O    -2.608000000     1.467000000     3.392000000
H    -2.719000000     2.104000000     2.686000000
H    -3.206000000     1.763000000     4.078000000
O     0.872000000    -4.487000000    -6.192000000
H     0.722000000    -5.358000000    -6.561000000
H     0.270000000    -4.434000000    -5.450000000
O     0.648000000    -0.639000000     6.400000000
H     0.423000000     0.169000000     5.940000000
H    -0.110000000    -0.818000000     6.957000000
