158
-3055.73947
C    -1.151000000    -0.241000000     0.802000000
H    -1.879000000    -0.615000000     1.517000000
C    -0.260000000    -1.206000000     0.401000000
H    -0.465000000    -2.243000000     0.656000000
C     0.724000000    -0.884000000    -0.443000000
H     1.370000000    -1.655000000    -0.892000000
C     0.904000000     0.463000000    -0.867000000
H     1.661000000     0.717000000    -1.605000000
C    -0.134000000     1.431000000    -0.535000000
H     0.013000000     2.470000000    -0.818000000
C    -1.106000000     1.107000000     0.388000000
C    -2.036000000     2.107000000     0.935000000
O    -2.657000000     1.830000000     1.931000000
O    -2.062000000     3.282000000     0.472000000
O     3.711000000    -4.686000000    -0.047000000
H     3.594000000    -4.353000000    -0.937000000
H     4.037000000    -3.935000000     0.449000000
O    -4.544000000     3.296000000     3.293000000
H    -5.150000000     2.643000000     2.944000000
H    -3.679000000     2.991000000     3.019000000
O    -5.710000000    -2.649000000    -1.537000000
H    -6.305000000    -3.395000000    -1.612000000
H    -4.924000000    -3.009000000    -1.128000000
O     2.992000000     3.533000000     0.594000000
H     3.193000000     3.686000000     1.517000000
H     2.053000000     3.704000000     0.522000000
O    -7.972000000     0.736000000     2.191000000
H    -8.298000000     1.634000000     2.129000000
H    -7.021000000     0.829000000     2.241000000
O    -4.640000000     4.248000000     6.196000000
H    -5.418000000     4.729000000     6.479000000
H    -4.658000000     4.305000000     5.240000000
O     0.032000000    -0.116000000    -4.077000000
H    -0.045000000     0.208000000    -3.180000000
H    -0.848000000    -0.022000000    -4.441000000
O     2.768000000    -7.410000000    -2.726000000
H     2.552000000    -8.280000000    -2.390000000
H     3.015000000    -6.908000000    -1.950000000
O     1.904000000    -0.092000000     5.228000000
H     1.869000000     0.064000000     4.284000000
H     1.562000000     0.713000000     5.617000000
O     3.767000000     0.876000000     0.803000000
H     4.192000000     0.369000000     0.111000000
H     3.894000000     1.788000000     0.543000000
O     3.783000000    -5.183000000     3.600000000
H     3.280000000    -4.370000000     3.548000000
H     3.786000000    -5.402000000     4.532000000
O    -5.087000000     0.879000000     2.319000000
H    -4.413000000     1.282000000     1.771000000
H    -5.195000000    -0.001000000     1.957000000
O    -3.210000000    -4.449000000    -3.083000000
H    -3.045000000    -3.553000000    -3.374000000
H    -2.772000000    -4.510000000    -2.234000000
O    -5.678000000     0.298000000    -1.684000000
H    -5.669000000    -0.638000000    -1.481000000
H    -4.756000000     0.528000000    -1.795000000
O     1.930000000     0.290000000    -6.326000000
H     1.202000000     0.062000000    -5.747000000
H     2.627000000    -0.321000000    -6.085000000
O    -2.374000000    -3.341000000     3.087000000
H    -2.809000000    -4.010000000     3.615000000
H    -1.712000000    -3.821000000     2.590000000
O     0.207000000     3.595000000     3.924000000
H    -0.219000000     2.752000000     3.772000000
H    -0.426000000     4.094000000     4.440000000
O    -2.734000000     3.711000000    -3.888000000
H    -2.133000000     4.058000000    -3.229000000
H    -2.198000000     3.615000000    -4.675000000
O    -6.694000000     4.552000000     1.759000000
H    -6.783000000     3.933000000     1.034000000
H    -7.324000000     5.245000000     1.561000000
O     1.162000000    -2.543000000    -3.795000000
H     1.219000000    -2.961000000    -4.654000000
H     0.584000000    -1.792000000    -3.932000000
O     1.747000000     0.285000000     2.472000000
H     0.952000000     0.236000000     1.942000000
H     2.451000000     0.420000000     1.838000000
O    -0.936000000    -5.015000000    -1.395000000
H    -0.114000000    -4.791000000    -0.957000000
H    -0.961000000    -5.971000000    -1.381000000
O    -2.468000000     7.825000000     0.253000000
H    -3.233000000     7.249000000     0.234000000
H    -2.021000000     7.603000000     1.070000000
O     1.226000000    -4.605000000     0.843000000
H     1.459000000    -4.048000000     1.585000000
H     2.054000000    -4.755000000     0.387000000
O    -0.840000000    -5.729000000     1.801000000
H    -0.004000000    -5.522000000     1.384000000
H    -0.605000000    -5.992000000     2.691000000
O     4.168000000    -1.368000000     4.117000000
H     4.685000000    -0.723000000     3.634000000
H     3.470000000    -0.857000000     4.526000000
O    -1.304000000     7.350000000     2.701000000
H    -1.910000000     8.073000000     2.866000000
H    -1.029000000     7.065000000     3.573000000
O    -5.525000000    -1.656000000     1.753000000
H    -6.246000000    -1.960000000     1.202000000
H    -5.270000000    -2.425000000     2.262000000
O    -3.971000000     2.655000000    -1.496000000
H    -3.621000000     3.004000000    -2.315000000
H    -3.465000000     3.093000000    -0.812000000
O    -4.676000000    -1.917000000     5.023000000
H    -5.349000000    -1.238000000     4.996000000
H    -4.128000000    -1.742000000     4.258000000
O     1.316000000     6.884000000     0.940000000
H     0.900000000     6.087000000     0.611000000
H     0.926000000     7.018000000     1.804000000
O     4.684000000    -4.389000000    -4.598000000
H     4.971000000    -3.720000000    -5.219000000
H     5.377000000    -4.417000000    -3.938000000
O     4.767000000    -0.742000000    -1.514000000
H     4.531000000    -1.121000000    -2.360000000
H     5.164000000     0.102000000    -1.731000000
O    -2.785000000    -1.085000000    -1.675000000
H    -3.209000000    -1.758000000    -1.141000000
H    -1.936000000    -0.945000000    -1.254000000
O     3.320000000    -3.527000000    -2.373000000
H     3.606000000    -3.976000000    -3.168000000
H     2.466000000    -3.159000000    -2.600000000
O     0.227000000     4.578000000     1.071000000
H     0.128000000     4.327000000     1.989000000
H    -0.492000000     4.133000000     0.622000000
O     7.221000000     0.585000000    -0.004000000
H     6.734000000     1.203000000     0.542000000
H     6.878000000     0.724000000    -0.887000000
O    -1.513000000     1.502000000     4.440000000
H    -2.072000000     1.488000000     3.664000000
H    -1.663000000     0.654000000     4.859000000
O    -1.362000000     4.498000000    -1.579000000
H    -1.014000000     5.384000000    -1.473000000
H    -1.727000000     4.280000000    -0.722000000
O    -5.564000000     6.794000000    -0.492000000
H    -6.420000000     6.407000000    -0.678000000
H    -5.137000000     6.163000000     0.088000000
O     2.091000000    -2.836000000     2.790000000
H     1.359000000    -2.243000000     2.961000000
H     2.871000000    -2.315000000     2.979000000
O    -3.740000000     5.355000000     1.234000000
H    -4.342000000     4.794000000     1.723000000
H    -3.002000000     4.784000000     1.020000000
O    -6.461000000     2.560000000    -0.206000000
H    -6.490000000     1.626000000    -0.416000000
H    -5.595000000     2.844000000    -0.497000000
O     5.466000000    -2.521000000     0.644000000
H     5.214000000    -2.353000000    -0.264000000
H     5.388000000    -1.670000000     1.076000000
O    -1.618000000     3.670000000     6.075000000
H    -1.721000000     2.852000000     5.587000000
H    -2.511000000     3.924000000     6.307000000
O    -2.887000000    -3.375000000    -0.123000000
H    -2.148000000    -3.977000000    -0.216000000
H    -3.185000000    -3.499000000     0.778000000
O     5.291000000     1.934000000    -1.876000000
H     5.404000000     1.935000000    -2.826000000
H     5.505000000     2.828000000    -1.608000000
O    -0.073000000    -1.872000000     4.187000000
H    -0.244000000    -1.423000000     5.015000000
H    -0.927000000    -1.915000000     3.757000000
