158
-3001.56565
C     0.361000000     1.111000000     0.935000000
H     0.550000000     2.043000000     1.462000000
C     0.514000000     1.127000000    -0.486000000
H     0.841000000     1.943000000    -1.125000000
C     0.176000000     0.004000000    -1.208000000
H     0.156000000     0.149000000    -2.315000000
C    -0.332000000    -1.112000000    -0.578000000
H    -0.649000000    -1.999000000    -1.120000000
C    -0.538000000    -1.149000000     0.824000000
H    -1.048000000    -1.992000000     1.284000000
C    -0.150000000    -0.044000000     1.563000000
C    -0.534000000     0.084000000     3.051000000
O    -0.262000000     1.083000000     3.684000000
O    -1.097000000    -0.859000000     3.563000000
O     3.485000000     0.584000000     1.500000000
H     4.354000000     0.211000000     1.647000000
H     3.419000000     0.668000000     0.549000000
O    -3.792000000    -1.148000000     2.836000000
H    -2.926000000    -1.052000000     3.233000000
H    -3.963000000    -0.301000000     2.426000000
O     2.244000000    -4.594000000     3.167000000
H     1.844000000    -4.175000000     3.929000000
H     2.483000000    -3.866000000     2.592000000
O     3.552000000     4.161000000    -1.698000000
H     3.861000000     3.922000000    -2.572000000
H     2.744000000     4.650000000    -1.855000000
O     3.768000000    -3.033000000    -3.195000000
H     2.839000000    -2.987000000    -3.421000000
H     4.173000000    -3.487000000    -3.935000000
O    -0.034000000     3.224000000    -4.843000000
H    -0.681000000     3.507000000    -5.488000000
H     0.284000000     4.037000000    -4.450000000
O    -6.150000000    -2.261000000    -2.130000000
H    -5.527000000    -1.922000000    -1.488000000
H    -5.908000000    -3.181000000    -2.237000000
O    -1.102000000     5.653000000     2.695000000
H    -1.005000000     6.266000000     3.424000000
H    -1.367000000     6.200000000     1.955000000
O     4.770000000     3.123000000     4.287000000
H     3.880000000     3.178000000     3.939000000
H     5.040000000     2.221000000     4.116000000
O     1.562000000     6.278000000    -2.078000000
H     2.259000000     6.828000000    -1.720000000
H     0.753000000     6.685000000    -1.769000000
O    -0.625000000     4.798000000    -2.461000000
H     0.182000000     5.311000000    -2.402000000
H    -1.145000000     5.247000000    -3.128000000
O     2.515000000     2.262000000    -3.745000000
H     2.951000000     1.466000000    -4.049000000
H     1.960000000     2.526000000    -4.478000000
O     0.531000000    -1.188000000     8.043000000
H     0.355000000    -1.754000000     8.795000000
H     1.486000000    -1.178000000     7.970000000
O     3.396000000     0.784000000    -1.325000000
H     3.558000000     1.707000000    -1.517000000
H     2.442000000     0.704000000    -1.318000000
O     2.690000000    -0.401000000     4.020000000
H     2.701000000    -0.455000000     3.065000000
H     3.603000000    -0.247000000     4.262000000
O    -3.794000000     0.789000000    -2.219000000
H    -3.873000000     1.523000000    -1.610000000
H    -3.156000000     1.084000000    -2.869000000
O     0.593000000    -6.865000000     0.668000000
H    -0.295000000    -6.795000000     1.017000000
H     1.101000000    -6.233000000     1.176000000
O    -4.161000000    -3.380000000     7.263000000
H    -3.241000000    -3.195000000     7.074000000
H    -4.462000000    -3.888000000     6.509000000
O    -4.803000000     0.360000000    -5.797000000
H    -5.720000000     0.113000000    -5.679000000
H    -4.311000000    -0.429000000    -5.568000000
O    -2.860000000    -1.700000000    -6.199000000
H    -2.246000000    -2.361000000    -6.520000000
H    -2.710000000    -1.671000000    -5.255000000
O     2.422000000    -2.540000000     1.409000000
H     2.760000000    -3.242000000     0.853000000
H     1.952000000    -1.963000000     0.807000000
O     0.306000000     1.412000000    -7.203000000
H     0.310000000     1.189000000    -6.272000000
H     0.352000000     2.368000000    -7.220000000
O     5.763000000    -1.622000000    -2.066000000
H     4.993000000    -1.236000000    -1.648000000
H     5.459000000    -2.467000000    -2.396000000
O     2.839000000    -0.527000000    -4.808000000
H     3.011000000    -0.460000000    -5.747000000
H     3.705000000    -0.484000000    -4.402000000
O    -1.706000000     1.255000000    -3.890000000
H    -1.147000000     1.998000000    -4.119000000
H    -1.418000000     0.551000000    -4.471000000
O    -0.711000000    -4.837000000     4.641000000
H    -0.060000000    -4.153000000     4.796000000
H    -1.552000000    -4.406000000     4.789000000
O     0.518000000     3.909000000     7.265000000
H     0.667000000     4.448000000     6.488000000
H     0.563000000     3.008000000     6.944000000
O     1.095000000    -2.608000000     4.485000000
H     1.536000000    -1.763000000     4.398000000
H     0.179000000    -2.422000000     4.279000000
O    -1.899000000     1.719000000     5.648000000
H    -1.487000000     1.472000000     4.820000000
H    -1.946000000     0.902000000     6.144000000
O    -3.635000000     1.408000000     1.387000000
H    -3.223000000     1.476000000     0.526000000
H    -3.081000000     1.939000000     1.960000000
O     1.317000000     1.567000000     6.182000000
H     2.107000000     1.374000000     5.676000000
H     0.596000000     1.374000000     5.583000000
O     4.383000000     3.968000000     1.018000000
H     4.673000000     3.419000000     1.747000000
H     4.508000000     3.422000000     0.242000000
O    -1.546000000    -2.332000000     6.037000000
H    -0.921000000    -2.018000000     6.691000000
H    -1.572000000    -1.637000000     5.379000000
O    -1.871000000     3.032000000     2.607000000
H    -1.371000000     2.548000000     3.265000000
H    -1.525000000     3.924000000     2.652000000
O     0.356000000    -4.142000000    -5.755000000
H     0.189000000    -5.077000000    -5.874000000
H     0.283000000    -3.772000000    -6.635000000
O    -4.396000000    -1.004000000    -0.462000000
H    -3.554000000    -1.098000000    -0.016000000
H    -4.236000000    -0.349000000    -1.141000000
O     1.336000000     5.232000000     1.664000000
H     0.716000000     5.332000000     2.386000000
H     1.855000000     4.463000000     1.899000000
O     3.070000000    -1.546000000     7.132000000
H     3.455000000    -0.695000000     7.341000000
H     2.675000000    -1.425000000     6.268000000
O     2.445000000     2.629000000     3.169000000
H     1.616000000     2.203000000     3.386000000
H     2.878000000     2.020000000     2.571000000
O    -0.136000000    -1.012000000    -4.736000000
H     0.763000000    -0.806000000    -4.994000000
H    -0.041000000    -1.587000000    -3.976000000
O    -6.068000000    -2.252000000     4.169000000
H    -5.164000000    -2.182000000     3.862000000
H    -6.571000000    -1.718000000     3.555000000
O    -1.217000000    -5.468000000    -1.968000000
H    -0.279000000    -5.279000000    -2.009000000
H    -1.285000000    -6.392000000    -2.208000000
O    -2.320000000     2.830000000    -1.029000000
H    -1.800000000     3.599000000    -1.264000000
H    -1.673000000     2.143000000    -0.869000000
O    -3.779000000     3.496000000     5.482000000
H    -3.083000000     2.856000000     5.624000000
H    -4.587000000     2.984000000     5.515000000
O     0.615000000    -3.426000000    -3.241000000
H     0.865000000    -3.557000000    -4.155000000
H    -0.264000000    -3.800000000    -3.177000000
O    -0.421000000     1.030000000     9.015000000
H    -0.223000000     0.195000000     8.590000000
H    -1.082000000     1.434000000     8.452000000
O    -3.034000000    -1.798000000    -3.568000000
H    -2.986000000    -2.685000000    -3.213000000
H    -3.406000000    -1.275000000    -2.858000000
O    -3.452000000    -4.155000000    -2.478000000
H    -4.006000000    -4.314000000    -1.714000000
H    -2.623000000    -4.585000000    -2.266000000
