158
-3020.29818
C     0.194000000     1.397000000     0.308000000
H     0.467000000     2.439000000     0.457000000
C     0.063000000     0.847000000    -0.912000000
H     0.162000000     1.506000000    -1.772000000
C    -0.028000000    -0.472000000    -1.087000000
H    -0.133000000    -0.939000000    -2.105000000
C    -0.293000000    -1.324000000    -0.036000000
H    -0.458000000    -2.366000000    -0.295000000
C    -0.152000000    -0.798000000     1.258000000
H    -0.183000000    -1.446000000     2.131000000
C     0.192000000     0.554000000     1.400000000
C     0.477000000     1.054000000     2.790000000
O     0.475000000     2.210000000     3.094000000
O     0.453000000     0.295000000     3.705000000
O    -0.962000000     4.034000000     1.885000000
H    -0.347000000     3.420000000     2.286000000
H    -0.429000000     4.797000000     1.664000000
O     4.986000000     1.721000000    -0.393000000
H     4.728000000     2.030000000    -1.261000000
H     4.962000000     2.504000000     0.157000000
O    -2.927000000     0.785000000    -0.338000000
H    -2.065000000     0.393000000    -0.482000000
H    -3.165000000     1.157000000    -1.187000000
O    -4.737000000    -2.005000000    -4.593000000
H    -5.494000000    -1.424000000    -4.662000000
H    -4.994000000    -2.792000000    -5.073000000
O     0.496000000     5.126000000    -1.490000000
H     1.080000000     4.860000000    -0.779000000
H     0.981000000     5.808000000    -1.955000000
O     4.633000000     1.784000000    -3.601000000
H     3.975000000     1.721000000    -4.293000000
H     5.114000000     2.587000000    -3.800000000
O    -3.900000000     0.483000000     2.421000000
H    -3.392000000     0.813000000     3.162000000
H    -3.291000000     0.508000000     1.683000000
O     3.588000000    -3.290000000    -4.934000000
H     2.835000000    -3.661000000    -4.475000000
H     3.960000000    -2.661000000    -4.316000000
O     0.816000000    -2.907000000    -6.174000000
H     0.296000000    -3.591000000    -5.753000000
H     1.288000000    -3.360000000    -6.873000000
O     3.325000000    -3.253000000     0.120000000
H     2.501000000    -3.652000000     0.399000000
H     3.122000000    -2.322000000     0.030000000
O    -3.011000000     1.869000000    -3.913000000
H    -2.453000000     2.590000000    -3.624000000
H    -2.417000000     1.123000000    -3.995000000
O    -1.766000000    -6.397000000    -0.357000000
H    -1.185000000    -5.884000000    -0.917000000
H    -1.987000000    -5.807000000     0.364000000
O    -4.047000000    -0.221000000     6.152000000
H    -3.916000000    -1.051000000     6.609000000
H    -3.206000000    -0.044000000     5.731000000
O    -1.966000000    -3.606000000     4.346000000
H    -1.643000000    -3.032000000     5.041000000
H    -2.246000000    -4.400000000     4.802000000
O     4.538000000    -0.789000000    -3.087000000
H     4.220000000    -0.946000000    -2.197000000
H     4.652000000     0.160000000    -3.136000000
O    -5.599000000     2.438000000    -2.856000000
H    -6.155000000     2.849000000    -3.519000000
H    -4.812000000     2.175000000    -3.333000000
O     1.774000000    -1.241000000    -4.223000000
H     1.496000000    -1.630000000    -5.053000000
H     2.098000000    -1.981000000    -3.709000000
O     1.974000000    -0.132000000    -7.898000000
H     1.965000000     0.702000000    -8.368000000
H     1.050000000    -0.361000000    -7.800000000
O     5.187000000     2.776000000     4.612000000
H     4.410000000     3.184000000     4.228000000
H     5.258000000     1.931000000     4.168000000
O    -1.343000000    -4.495000000     1.826000000
H    -0.402000000    -4.358000000     1.715000000
H    -1.500000000    -4.339000000     2.757000000
O     4.172000000     4.418000000    -2.382000000
H     3.320000000     4.382000000    -2.817000000
H     4.807000000     4.324000000    -3.092000000
O     2.580000000     0.621000000     5.367000000
H     3.311000000     0.646000000     4.749000000
H     1.843000000     0.292000000     4.852000000
O     3.160000000    -0.690000000    -0.259000000
H     3.775000000    -0.042000000     0.085000000
H     2.450000000    -0.171000000    -0.635000000
O     1.408000000    -4.351000000     2.120000000
H     1.976000000    -5.120000000     2.154000000
H     1.505000000    -3.943000000     2.981000000
O     3.985000000     5.988000000     3.252000000
H     3.046000000     5.806000000     3.290000000
H     4.052000000     6.796000000     2.744000000
O    -0.913000000     0.613000000    -7.182000000
H    -1.073000000     0.653000000    -6.240000000
H    -0.726000000     1.518000000    -7.432000000
O     3.482000000    -1.708000000     6.494000000
H     3.197000000    -0.867000000     6.138000000
H     3.116000000    -2.359000000     5.895000000
O     2.974000000     3.063000000     3.183000000
H     3.112000000     2.939000000     2.244000000
H     2.079000000     2.758000000     3.336000000
O    -3.786000000    -2.288000000     1.874000000
H    -2.996000000    -2.648000000     2.277000000
H    -3.963000000    -1.487000000     2.367000000
O    -1.268000000    -2.038000000     6.631000000
H    -2.155000000    -2.330000000     6.842000000
H    -1.363000000    -1.105000000     6.438000000
O    -1.676000000    -0.297000000    -4.685000000
H    -2.262000000    -0.979000000    -4.356000000
H    -0.841000000    -0.470000000    -4.251000000
O     2.542000000     1.558000000     7.801000000
H     1.908000000     2.270000000     7.712000000
H     2.543000000     1.131000000     6.944000000
O    -1.292000000     0.490000000     5.626000000
H    -0.907000000     1.326000000     5.891000000
H    -0.668000000     0.128000000     4.997000000
O     1.292000000     6.218000000     3.770000000
H     1.224000000     5.721000000     4.586000000
H     0.387000000     6.430000000     3.543000000
O     2.779000000     4.725000000    -0.170000000
H     3.384000000     4.607000000     0.562000000
H     3.337000000     4.708000000    -0.947000000
O    -1.376000000     5.299000000     5.538000000
H    -2.041000000     5.460000000     4.868000000
H    -1.277000000     6.140000000     5.983000000
O     2.374000000     1.518000000    -5.206000000
H     1.729000000     1.200000000    -4.573000000
H     2.522000000     0.774000000    -5.790000000
O    -0.718000000    -4.642000000    -4.213000000
H    -1.265000000    -4.601000000    -4.998000000
H    -1.258000000    -4.253000000    -3.524000000
O     0.468000000     6.383000000     1.050000000
H     0.352000000     6.039000000     0.165000000
H     1.399000000     6.602000000     1.102000000
O     4.963000000     0.274000000     3.966000000
H     5.232000000     0.107000000     3.062000000
H     5.190000000    -0.528000000     4.436000000
O    -1.467000000     3.632000000    -2.722000000
H    -0.634000000     4.068000000    -2.544000000
H    -2.132000000     4.253000000    -2.423000000
O    -2.538000000     2.457000000     3.865000000
H    -1.839000000     2.026000000     4.359000000
H    -2.090000000     3.131000000     3.354000000
O    -0.001000000     2.814000000     5.780000000
H     0.287000000     2.600000000     4.893000000
H    -0.455000000     3.652000000     5.688000000
O    -2.520000000    -2.898000000    -3.162000000
H    -2.861000000    -2.877000000    -2.268000000
H    -3.277000000    -2.701000000    -3.713000000
O     1.922000000    -4.434000000    -3.157000000
H     1.787000000    -5.024000000    -2.415000000
H     1.126000000    -4.525000000    -3.682000000
O     1.105000000    -2.317000000     4.392000000
H     0.793000000    -1.430000000     4.211000000
H     0.624000000    -2.585000000     5.175000000
O    -3.339000000     3.902000000     0.821000000
H    -3.384000000     2.997000000     0.512000000
H    -2.488000000     3.965000000     1.255000000
O    -3.917000000    -3.235000000    -0.809000000
H    -3.917000000    -2.885000000     0.082000000
H    -4.422000000    -4.046000000    -0.748000000
