158
-3043.06268
C     0.406000000     1.396000000     0.343000000
H     0.858000000     2.380000000     0.429000000
C     0.149000000     0.948000000    -0.971000000
H     0.240000000     1.614000000    -1.824000000
C    -0.142000000    -0.416000000    -1.162000000
H    -0.250000000    -0.685000000    -2.182000000
C    -0.415000000    -1.212000000    -0.054000000
H    -0.536000000    -2.277000000    -0.232000000
C    -0.297000000    -0.682000000     1.265000000
H    -0.355000000    -1.366000000     2.107000000
C     0.165000000     0.605000000     1.467000000
C     0.393000000     1.046000000     2.880000000
O     1.150000000     1.998000000     3.068000000
O    -0.068000000     0.461000000     3.825000000
O     4.240000000     0.853000000     0.045000000
H     5.150000000     1.151000000     0.057000000
H     4.251000000     0.073000000    -0.510000000
O    -2.728000000     0.783000000    -0.498000000
H    -2.741000000     1.693000000    -0.201000000
H    -1.851000000     0.471000000    -0.273000000
O     3.171000000    -3.760000000     0.258000000
H     3.082000000    -3.124000000     0.967000000
H     3.900000000    -3.431000000    -0.269000000
O     4.795000000    -3.090000000    -4.234000000
H     3.845000000    -3.180000000    -4.155000000
H     4.974000000    -3.250000000    -5.160000000
O    -1.111000000     3.129000000    -5.937000000
H    -1.925000000     3.187000000    -5.436000000
H    -1.064000000     3.957000000    -6.413000000
O    -5.877000000    -0.370000000    -3.007000000
H    -5.119000000     0.180000000    -3.208000000
H    -5.781000000    -1.130000000    -3.582000000
O    -0.105000000     6.850000000     1.220000000
H     0.805000000     6.673000000     0.980000000
H    -0.436000000     7.403000000     0.512000000
O     3.059000000     3.718000000    -2.050000000
H     2.716000000     4.600000000    -2.197000000
H     2.375000000     3.138000000    -2.384000000
O     1.155000000    -1.914000000     7.327000000
H     1.085000000    -2.324000000     8.189000000
H     2.064000000    -1.621000000     7.275000000
O     4.104000000     1.492000000    -3.703000000
H     4.166000000     2.322000000    -3.229000000
H     3.534000000     0.948000000    -3.160000000
O     4.907000000    -0.665000000     2.366000000
H     4.349000000    -0.120000000     1.812000000
H     5.379000000    -0.041000000     2.918000000
O    -2.396000000     3.261000000    -3.430000000
H    -1.552000000     3.710000000    -3.481000000
H    -3.018000000     3.946000000    -3.186000000
O     1.179000000    -4.666000000    -1.192000000
H     0.456000000    -4.407000000    -0.621000000
H     1.963000000    -4.549000000    -0.654000000
O    -3.563000000    -0.848000000     3.543000000
H    -3.352000000    -0.851000000     2.609000000
H    -4.518000000    -0.908000000     3.573000000
O    -1.239000000    -3.105000000     6.584000000
H    -0.386000000    -2.687000000     6.704000000
H    -1.361000000    -3.132000000     5.635000000
O    -1.980000000    -0.679000000    -6.987000000
H    -2.326000000    -1.107000000    -6.204000000
H    -1.034000000    -0.646000000    -6.843000000
O    -0.266000000    -2.675000000    -4.932000000
H    -1.072000000    -2.273000000    -4.609000000
H    -0.492000000    -3.595000000    -5.063000000
O     2.551000000    -0.163000000    -2.559000000
H     2.718000000    -1.081000000    -2.773000000
H     1.927000000    -0.196000000    -1.834000000
O     1.559000000    -6.488000000    -3.228000000
H     2.502000000    -6.330000000    -3.262000000
H     1.224000000    -5.807000000    -2.643000000
O     0.374000000     0.927000000    -6.768000000
H    -0.147000000     1.692000000    -6.523000000
H     1.220000000     1.067000000    -6.342000000
O     0.850000000     3.484000000    -4.072000000
H     0.247000000     3.356000000    -4.805000000
H     1.682000000     3.716000000    -4.484000000
O     4.020000000     4.744000000     4.312000000
H     3.136000000     5.105000000     4.381000000
H     4.421000000     5.230000000     3.592000000
O     3.011000000    -2.411000000     2.743000000
H     3.648000000    -1.752000000     3.018000000
H     2.298000000    -2.333000000     3.377000000
O    -0.150000000     3.035000000     5.296000000
H     0.180000000     2.372000000     4.689000000
H    -0.649000000     2.539000000     5.945000000
O    -2.198000000     4.229000000     0.284000000
H    -1.563000000     4.468000000    -0.392000000
H    -1.734000000     4.374000000     1.109000000
O     3.027000000     1.513000000     4.985000000
H     3.646000000     2.215000000     4.783000000
H     2.366000000     1.570000000     4.295000000
O     5.445000000     3.959000000    -0.679000000
H     5.907000000     3.123000000    -0.745000000
H     4.694000000     3.864000000    -1.264000000
O     0.705000000    -1.922000000     4.615000000
H     0.832000000    -1.922000000     5.564000000
H     0.243000000    -1.103000000     4.436000000
O    -0.212000000     0.723000000     7.518000000
H     0.387000000     0.013000000     7.288000000
H     0.344000000     1.378000000     7.940000000
O     0.012000000    -5.001000000     3.448000000
H     0.315000000    -5.888000000     3.640000000
H     0.815000000    -4.501000000     3.296000000
O    -0.223000000     4.080000000     2.491000000
H     0.283000000     3.303000000     2.729000000
H     0.434000000     4.716000000     2.207000000
O    -2.691000000     0.392000000    -3.135000000
H    -2.772000000     0.537000000    -2.193000000
H    -2.376000000     1.227000000    -3.480000000
O    -1.013000000    -4.875000000     0.601000000
H    -1.892000000    -4.565000000     0.383000000
H    -1.005000000    -4.917000000     1.558000000
O     4.601000000     5.147000000     1.808000000
H     4.374000000     4.295000000     2.181000000
H     5.064000000     4.938000000     0.997000000
O    -2.496000000     1.128000000     5.625000000
H    -1.648000000     0.781000000     5.903000000
H    -2.485000000     1.049000000     4.671000000
O     1.714000000     6.400000000     4.456000000
H     1.648000000     7.327000000     4.227000000
H     0.841000000     6.048000000     4.280000000
O     3.643000000    -0.721000000     6.564000000
H     3.250000000    -0.121000000     5.930000000
H     4.537000000    -0.850000000     6.250000000
O     3.395000000     2.589000000     1.978000000
H     2.575000000     2.208000000     2.291000000
H     3.538000000     2.182000000     1.124000000
O     3.001000000     1.285000000    -6.039000000
H     3.701000000     1.138000000    -6.674000000
H     3.412000000     1.133000000    -5.188000000
O    -3.980000000    -1.433000000     0.468000000
H    -3.411000000    -0.723000000     0.170000000
H    -4.858000000    -1.167000000     0.195000000
O     2.036000000    -3.075000000    -3.259000000
H     1.689000000    -3.714000000    -2.636000000
H     1.303000000    -2.890000000    -3.846000000
O    -3.725000000    -4.041000000     0.598000000
H    -3.737000000    -3.086000000     0.654000000
H    -4.550000000    -4.315000000     0.999000000
O    -0.080000000     4.443000000    -1.690000000
H     0.584000000     5.119000000    -1.556000000
H     0.253000000     3.920000000    -2.418000000
O    -2.926000000     2.540000000     2.750000000
H    -2.587000000     2.839000000     3.594000000
H    -2.725000000     3.255000000     2.146000000
O    -1.713000000     5.138000000     6.276000000
H    -1.258000000     4.573000000     5.652000000
H    -2.578000000     4.741000000     6.373000000
O     1.644000000    -2.040000000    -7.218000000
H     1.406000000    -2.235000000    -6.312000000
H     2.249000000    -1.301000000    -7.153000000
O     1.756000000     3.214000000     7.687000000
H     2.143000000     3.995000000     7.294000000
H     1.537000000     2.654000000     6.942000000
O    -2.961000000    -1.907000000    -4.553000000
H    -3.797000000    -2.283000000    -4.276000000
H    -2.893000000    -1.088000000    -4.062000000
