158
-3026.02575
C     0.336000000     1.383000000     0.510000000
H     0.426000000     2.434000000     0.769000000
C     0.478000000     0.909000000    -0.787000000
H     0.751000000     1.616000000    -1.566000000
C     0.165000000    -0.398000000    -1.192000000
H     0.103000000    -0.764000000    -2.225000000
C    -0.221000000    -1.314000000    -0.203000000
H    -0.353000000    -2.331000000    -0.563000000
C    -0.307000000    -0.885000000     1.139000000
H    -0.500000000    -1.612000000     1.923000000
C    -0.104000000     0.463000000     1.475000000
C    -0.357000000     0.864000000     2.871000000
O    -0.665000000     2.027000000     3.126000000
O     0.098000000     0.056000000     3.740000000
O    -2.614000000     3.546000000     2.317000000
H    -1.856000000     3.039000000     2.610000000
H    -2.284000000     4.069000000     1.586000000
O     5.010000000     1.846000000    -0.952000000
H     4.630000000     2.664000000    -0.634000000
H     4.353000000     1.495000000    -1.553000000
O    -2.911000000     0.169000000    -0.804000000
H    -1.999000000     0.025000000    -0.551000000
H    -2.871000000     0.372000000    -1.739000000
O    -5.535000000     4.056000000     3.105000000
H    -4.596000000     3.940000000     2.960000000
H    -5.788000000     3.310000000     3.649000000
O     1.047000000     4.261000000    -0.834000000
H     1.942000000     4.048000000    -0.567000000
H     0.900000000     5.144000000    -0.496000000
O     3.915000000     0.592000000    -3.200000000
H     4.584000000     0.790000000    -3.856000000
H     3.271000000     0.060000000    -3.668000000
O    -4.594000000    -0.121000000     1.180000000
H    -4.267000000     0.462000000     1.865000000
H    -4.028000000     0.052000000     0.427000000
O     3.535000000    -3.163000000    -5.599000000
H     2.669000000    -3.549000000    -5.468000000
H     3.999000000    -3.332000000    -4.779000000
O     0.726000000    -3.237000000    -4.770000000
H     0.036000000    -3.773000000    -4.379000000
H     0.260000000    -2.630000000    -5.345000000
O     3.019000000    -3.057000000     0.580000000
H     3.261000000    -3.917000000     0.237000000
H     2.064000000    -3.077000000     0.627000000
O    -2.611000000     1.361000000    -3.364000000
H    -2.235000000     2.142000000    -2.957000000
H    -3.323000000     1.695000000    -3.910000000
O    -0.621000000    -5.772000000    -0.906000000
H    -1.524000000    -6.016000000    -1.109000000
H    -0.687000000    -5.252000000    -0.106000000
O    -4.427000000    -2.594000000     4.487000000
H    -4.268000000    -2.760000000     5.416000000
H    -3.904000000    -1.817000000     4.289000000
O    -3.234000000    -4.772000000     3.453000000
H    -3.773000000    -4.146000000     3.935000000
H    -3.214000000    -5.551000000     4.009000000
O    -3.510000000     1.028000000     7.444000000
H    -2.881000000     1.467000000     6.870000000
H    -4.178000000     0.687000000     6.850000000
O     1.993000000    -0.663000000    -4.798000000
H     1.847000000    -1.608000000    -4.813000000
H     2.012000000    -0.409000000    -5.721000000
O     1.493000000    -0.338000000    -7.399000000
H     0.828000000    -1.025000000    -7.456000000
H     1.499000000     0.063000000    -8.268000000
O    -0.345000000     3.713000000    -5.650000000
H    -0.452000000     4.036000000    -4.756000000
H     0.446000000     3.175000000    -5.617000000
O    -0.922000000    -4.948000000     1.941000000
H    -0.213000000    -4.488000000     2.390000000
H    -1.720000000    -4.523000000     2.257000000
O     1.449000000     1.063000000     6.122000000
H     2.326000000     0.846000000     5.805000000
H     0.898000000     1.037000000     5.341000000
O     2.599000000    -1.036000000     2.641000000
H     2.338000000    -1.585000000     1.902000000
H     1.832000000    -1.023000000     3.213000000
O     1.064000000    -3.950000000     3.392000000
H     1.237000000    -4.731000000     3.916000000
H     1.014000000    -3.239000000     4.031000000
O    -2.149000000     6.365000000     3.430000000
H    -3.012000000     6.678000000     3.703000000
H    -2.331000000     5.568000000     2.932000000
O     0.959000000     6.548000000     0.603000000
H     1.561000000     7.253000000     0.366000000
H     0.733000000     6.723000000     1.516000000
O     1.857000000     6.068000000     4.720000000
H     1.411000000     5.271000000     4.435000000
H     1.562000000     6.740000000     4.106000000
O    -2.556000000    -0.840000000    -7.452000000
H    -2.033000000    -0.518000000    -6.718000000
H    -2.695000000    -0.070000000    -8.003000000
O     2.352000000    -2.521000000     7.224000000
H     1.654000000    -2.584000000     6.573000000
H     3.140000000    -2.803000000     6.759000000
O     1.880000000     5.027000000    -3.379000000
H     1.670000000     4.523000000    -2.593000000
H     1.700000000     5.935000000    -3.137000000
O     1.278000000     3.721000000     3.653000000
H     0.785000000     2.904000000     3.572000000
H     2.144000000     3.514000000     3.301000000
O    -1.012000000    -0.298000000    -4.977000000
H    -1.252000000     0.270000000    -4.244000000
H    -0.060000000    -0.225000000    -5.035000000
O     0.191000000     2.415000000     8.146000000
H    -0.678000000     2.370000000     7.748000000
H     0.767000000     1.986000000     7.513000000
O    -2.832000000    -0.474000000     5.034000000
H    -2.691000000    -0.725000000     5.947000000
H    -1.961000000    -0.511000000     4.638000000
O     3.675000000     4.029000000     0.271000000
H     3.569000000     3.753000000     1.181000000
H     3.855000000     4.967000000     0.325000000
O     3.754000000     3.112000000     2.904000000
H     4.310000000     2.351000000     2.737000000
H     4.367000000     3.841000000     2.997000000
O     1.930000000     2.400000000    -6.291000000
H     2.661000000     2.867000000    -6.697000000
H     1.828000000     1.609000000    -6.819000000
O    -1.503000000    -4.591000000    -3.739000000
H    -1.488000000    -4.621000000    -2.782000000
H    -2.146000000    -3.912000000    -3.947000000
O    -1.843000000     5.416000000     0.415000000
H    -2.124000000     5.776000000    -0.426000000
H    -0.987000000     5.815000000     0.573000000
O     5.630000000    -2.126000000    -3.195000000
H     5.549000000    -1.819000000    -2.292000000
H     5.424000000    -1.358000000    -3.729000000
O     3.888000000    -0.261000000     5.224000000
H     3.663000000    -0.767000000     4.443000000
H     4.711000000    -0.643000000     5.528000000
O    -1.776000000     3.678000000    -2.217000000
H    -0.879000000     3.543000000    -1.911000000
H    -2.021000000     4.536000000    -1.869000000
O    -3.799000000     1.320000000     3.226000000
H    -3.392000000     1.033000000     4.043000000
H    -3.329000000     2.121000000     2.993000000
O    -1.873000000     2.451000000     5.888000000
H    -1.406000000     2.436000000     5.053000000
H    -2.090000000     3.374000000     6.025000000
O    -3.125000000    -2.499000000    -3.006000000
H    -3.454000000    -2.189000000    -2.162000000
H    -3.609000000    -1.987000000    -3.654000000
O     1.611000000    -4.471000000    -2.513000000
H     0.947000000    -5.072000000    -2.174000000
H     1.133000000    -3.902000000    -3.116000000
O     0.307000000    -2.009000000     5.260000000
H     0.453000000    -1.180000000     4.805000000
H    -0.231000000    -1.775000000     6.016000000
O    -4.460000000     3.338000000    -0.196000000
H    -3.828000000     3.442000000    -0.907000000
H    -3.923000000     3.203000000     0.585000000
O     2.992000000    -5.592000000    -0.233000000
H     2.616000000    -5.184000000    -1.014000000
H     2.764000000    -6.518000000    -0.313000000
O    -4.453000000    -0.951000000    -5.136000000
H    -4.567000000    -1.208000000    -6.051000000
H    -3.584000000    -0.549000000    -5.107000000
