158
-3009.05096
C     1.353000000     0.215000000    -0.331000000
H     2.350000000     0.312000000    -0.754000000
C     0.311000000     0.189000000    -1.240000000
H     0.530000000     0.283000000    -2.300000000
C    -0.933000000     0.017000000    -0.802000000
H    -1.805000000     0.028000000    -1.473000000
C    -1.089000000    -0.308000000     0.561000000
H    -2.088000000    -0.533000000     0.925000000
C    -0.036000000    -0.229000000     1.486000000
H    -0.300000000    -0.274000000     2.539000000
C     1.198000000     0.041000000     1.041000000
C     2.478000000     0.048000000     1.946000000
O     3.600000000     0.006000000     1.480000000
O     2.354000000    -0.052000000     3.158000000
O    -1.635000000    -1.567000000     4.736000000
H    -0.715000000    -1.729000000     4.528000000
H    -1.622000000    -1.225000000     5.630000000
O     0.055000000    -1.484000000    -4.264000000
H    -0.078000000    -1.358000000    -3.324000000
H    -0.814000000    -1.703000000    -4.601000000
O    -2.681000000    -2.182000000    -4.661000000
H    -3.105000000    -3.012000000    -4.874000000
H    -3.356000000    -1.521000000    -4.812000000
O     8.097000000    -1.467000000     3.229000000
H     7.865000000    -2.396000000     3.198000000
H     7.258000000    -1.009000000     3.189000000
O     2.070000000    -0.874000000    -6.445000000
H     2.270000000     0.062000000    -6.454000000
H     1.585000000    -1.007000000    -5.630000000
O    -2.584000000    -5.598000000     2.463000000
H    -1.884000000    -6.231000000     2.307000000
H    -2.145000000    -4.747000000     2.451000000
O     5.529000000    -1.716000000     0.332000000
H     4.828000000    -1.217000000     0.751000000
H     6.325000000    -1.222000000     0.527000000
O     2.993000000     4.837000000     5.859000000
H     3.210000000     3.973000000     5.510000000
H     2.533000000     5.276000000     5.144000000
O     5.239000000     1.662000000     0.486000000
H     5.508000000     1.276000000    -0.348000000
H     4.637000000     1.021000000     0.864000000
O     3.927000000    -2.372000000     3.395000000
H     3.880000000    -1.469000000     3.081000000
H     4.811000000    -2.458000000     3.751000000
O    -2.065000000    -3.003000000    -1.821000000
H    -2.791000000    -3.129000000    -1.209000000
H    -2.321000000    -2.241000000    -2.341000000
O    -3.852000000    -3.051000000     3.917000000
H    -3.009000000    -2.600000000     3.958000000
H    -4.050000000    -3.273000000     4.827000000
O     5.269000000    -4.637000000     0.943000000
H     4.454000000    -5.108000000     1.117000000
H     4.988000000    -3.752000000     0.709000000
O    -6.379000000    -2.333000000     3.081000000
H    -7.018000000    -2.785000000     3.631000000
H    -5.530000000    -2.656000000     3.384000000
O     0.845000000    -3.106000000    -1.433000000
H     0.835000000    -2.905000000    -0.498000000
H    -0.035000000    -3.435000000    -1.617000000
O     4.824000000     0.713000000    -2.293000000
H     3.925000000     1.014000000    -2.158000000
H     4.866000000     0.494000000    -3.224000000
O    -0.995000000    -3.466000000     1.684000000
H    -0.758000000    -2.546000000     1.804000000
H    -1.793000000    -3.440000000     1.157000000
O    -6.505000000    -0.970000000    -1.162000000
H    -6.877000000    -0.568000000    -0.377000000
H    -6.543000000    -1.911000000    -0.990000000
O     2.476000000    -2.615000000     0.870000000
H     3.092000000    -2.425000000     1.578000000
H     2.239000000    -3.533000000     0.998000000
O     2.066000000    -3.926000000    -3.945000000
H     1.663000000    -3.487000000    -4.695000000
H     1.635000000    -3.540000000    -3.182000000
O     4.445000000     4.248000000    -0.587000000
H     4.757000000     3.469000000    -0.128000000
H     3.723000000     3.932000000    -1.131000000
O     0.810000000     1.873000000     6.626000000
H     1.716000000     1.765000000     6.914000000
H     0.875000000     2.032000000     5.684000000
O     3.893000000    -2.868000000    -1.747000000
H     4.459000000    -2.309000000    -1.214000000
H     3.008000000    -2.684000000    -1.431000000
O     5.976000000    -1.748000000     5.626000000
H     5.514000000    -2.165000000     6.353000000
H     6.299000000    -2.477000000     5.097000000
O     6.121000000    -2.135000000    -3.296000000
H     5.990000000    -1.391000000    -3.884000000
H     5.322000000    -2.167000000    -2.770000000
O     0.913000000    -2.496000000     4.081000000
H     1.650000000    -1.960000000     3.788000000
H     1.137000000    -3.384000000     3.803000000
O     5.441000000     2.503000000     4.269000000
H     4.510000000     2.644000000     4.444000000
H     5.821000000     3.381000000     4.270000000
O    -4.498000000     0.840000000    -2.191000000
H    -4.825000000     0.028000000    -1.805000000
H    -5.114000000     1.035000000    -2.898000000
O    -3.562000000    -2.707000000     0.519000000
H    -3.559000000    -1.969000000     1.128000000
H    -4.484000000    -2.950000000     0.441000000
O     1.644000000    -0.809000000     7.717000000
H     2.214000000    -0.240000000     8.234000000
H     2.165000000    -1.035000000     6.947000000
O     5.538000000     0.015000000     3.310000000
H     5.472000000     0.893000000     3.686000000
H     4.857000000    -0.010000000     2.638000000
O    -4.160000000    -0.610000000     2.464000000
H    -3.968000000    -1.519000000     2.695000000
H    -4.939000000    -0.393000000     2.976000000
O    -0.934000000     0.027000000     7.555000000
H    -0.246000000    -0.632000000     7.647000000
H    -0.499000000     0.770000000     7.137000000
O     0.765000000     3.226000000    -4.354000000
H     0.448000000     2.444000000    -4.805000000
H     1.509000000     3.520000000    -4.879000000
O    -0.360000000     1.220000000    -6.439000000
H    -0.131000000     1.801000000    -7.164000000
H    -1.300000000     1.070000000    -6.540000000
O    -7.115000000     3.043000000    -0.061000000
H    -6.169000000     2.980000000     0.067000000
H    -7.461000000     2.229000000     0.305000000
O    -1.479000000    -5.556000000    -2.637000000
H    -1.160000000    -5.899000000    -1.802000000
H    -2.096000000    -4.866000000    -2.392000000
O     3.302000000    -4.365000000     5.538000000
H     2.523000000    -4.219000000     6.075000000
H     3.240000000    -3.710000000     4.843000000
O    -2.907000000     2.033000000     2.172000000
H    -3.155000000     1.109000000     2.212000000
H    -3.532000000     2.422000000     1.560000000
O     2.530000000     2.308000000     4.345000000
H     2.451000000     2.797000000     3.526000000
H     2.458000000     1.390000000     4.084000000
O    -4.381000000     2.606000000    -0.105000000
H    -4.343000000     1.992000000    -0.838000000
H    -3.982000000     3.408000000    -0.442000000
O    -5.185000000    -0.306000000    -4.965000000
H    -4.580000000     0.186000000    -5.519000000
H    -5.843000000    -0.645000000    -5.572000000
O     2.258000000     3.193000000    -1.853000000
H     1.738000000     2.907000000    -2.604000000
H     1.644000000     3.182000000    -1.119000000
O    -1.596000000     5.458000000    -3.863000000
H    -1.152000000     4.620000000    -3.733000000
H    -2.510000000     5.282000000    -3.640000000
O    -0.417000000     3.523000000     1.467000000
H    -0.808000000     2.656000000     1.355000000
H    -0.986000000     4.109000000     0.969000000
O    -2.512000000     3.327000000     4.672000000
H    -2.536000000     2.870000000     3.831000000
H    -3.095000000     2.821000000     5.237000000
O     7.792000000     2.434000000     2.155000000
H     7.365000000     3.124000000     2.663000000
H     7.070000000     1.925000000     1.787000000
O     3.607000000    -0.479000000     5.709000000
H     3.110000000    -0.274000000     4.917000000
H     4.511000000    -0.573000000     5.407000000
