158
-3056.85175
C     1.323000000     0.593000000    -0.209000000
H     2.307000000     0.944000000    -0.510000000
C     0.291000000     0.625000000    -1.153000000
H     0.477000000     1.129000000    -2.098000000
C    -0.917000000    -0.046000000    -0.867000000
H    -1.771000000    -0.058000000    -1.473000000
C    -1.137000000    -0.513000000     0.447000000
H    -2.063000000    -1.025000000     0.693000000
C    -0.129000000    -0.359000000     1.424000000
H    -0.241000000    -0.856000000     2.384000000
C     1.093000000     0.132000000     1.065000000
C     2.237000000     0.230000000     2.050000000
O     3.229000000     0.869000000     1.882000000
O     2.186000000    -0.464000000     3.066000000
O    -3.180000000    -0.008000000     3.936000000
H    -2.897000000    -0.918000000     3.851000000
H    -2.594000000     0.480000000     3.357000000
O     2.159000000     0.192000000    -6.205000000
H     1.760000000    -0.148000000    -5.404000000
H     1.756000000     1.052000000    -6.327000000
O    -4.243000000     1.845000000    -6.909000000
H    -4.818000000     1.101000000    -6.730000000
H    -3.913000000     2.105000000    -6.049000000
O    -4.665000000    -2.424000000    -4.923000000
H    -5.286000000    -3.044000000    -4.540000000
H    -3.807000000    -2.824000000    -4.779000000
O    -1.360000000     3.729000000    -3.543000000
H    -1.548000000     4.346000000    -2.836000000
H    -0.423000000     3.549000000    -3.461000000
O     2.611000000    -3.422000000     1.337000000
H     2.842000000    -2.619000000     1.804000000
H     2.432000000    -3.135000000     0.442000000
O     4.659000000     3.350000000    -0.386000000
H     4.983000000     4.196000000    -0.076000000
H     4.858000000     2.743000000     0.326000000
O     3.635000000     2.395000000    -2.559000000
H     4.307000000     2.710000000    -3.164000000
H     3.949000000     2.658000000    -1.694000000
O    -0.327000000    -3.613000000     1.018000000
H    -0.226000000    -3.712000000     1.964000000
H    -0.047000000    -2.716000000     0.839000000
O    -2.504000000    -2.612000000     3.152000000
H    -1.641000000    -2.887000000     3.461000000
H    -2.807000000    -3.340000000     2.608000000
O     3.181000000    -0.815000000    -2.994000000
H     3.125000000     0.038000000    -2.563000000
H     2.444000000    -0.822000000    -3.606000000
O    -3.352000000     1.716000000     1.188000000
H    -3.368000000     2.070000000     0.299000000
H    -3.592000000     2.457000000     1.745000000
O     7.691000000     2.016000000    -0.288000000
H     8.439000000     2.352000000     0.206000000
H     7.182000000     1.523000000     0.355000000
O    -5.385000000    -3.929000000     1.804000000
H    -4.692000000    -4.589000000     1.813000000
H    -5.374000000    -3.557000000     2.686000000
O    -0.869000000    -2.760000000    -2.705000000
H    -1.327000000    -2.737000000    -1.865000000
H    -1.467000000    -3.223000000    -3.291000000
O    -2.558000000    -3.563000000    -0.509000000
H    -3.322000000    -3.656000000     0.060000000
H    -1.832000000    -3.390000000     0.091000000
O     3.116000000     6.263000000     1.526000000
H     2.888000000     5.342000000     1.653000000
H     4.073000000     6.280000000     1.558000000
O    -1.182000000     0.550000000    -6.087000000
H    -1.752000000     0.917000000    -5.412000000
H    -1.732000000    -0.086000000    -6.545000000
O     1.534000000     3.203000000    -4.201000000
H     2.382000000     2.877000000    -3.901000000
H     1.693000000     3.496000000    -5.098000000
O    -0.839000000     2.343000000     4.842000000
H    -0.825000000     2.719000000     3.962000000
H    -1.671000000     2.634000000     5.214000000
O     1.578000000    -4.173000000    -3.427000000
H     2.000000000    -3.728000000    -2.691000000
H     0.657000000    -3.919000000    -3.364000000
O     2.000000000    -2.271000000    -1.087000000
H     1.416000000    -1.613000000    -0.710000000
H     2.625000000    -1.766000000    -1.607000000
O     1.963000000    -2.793000000     4.461000000
H     2.751000000    -2.835000000     5.002000000
H     1.961000000    -1.902000000     4.110000000
O     0.213000000    -0.032000000     5.139000000
H     0.974000000     0.032000000     4.561000000
H    -0.167000000     0.847000000     5.131000000
O     4.264000000    -2.215000000     5.936000000
H     3.821000000    -1.391000000     6.139000000
H     4.993000000    -1.963000000     5.370000000
O     2.394000000     3.726000000     1.733000000
H     2.713000000     2.833000000     1.601000000
H     2.338000000     3.821000000     2.684000000
O    -6.307000000     3.247000000    -4.828000000
H    -5.634000000     3.113000000    -4.159000000
H    -6.112000000     4.110000000    -5.194000000
O    -5.104000000    -2.241000000    -1.415000000
H    -4.701000000    -1.868000000    -0.631000000
H    -4.365000000    -2.472000000    -1.978000000
O     5.864000000     0.311000000     1.195000000
H     5.788000000    -0.503000000     0.697000000
H     5.007000000     0.421000000     1.606000000
O     6.308000000     0.669000000    -2.012000000
H     6.639000000     1.178000000    -1.272000000
H     5.431000000     1.019000000    -2.170000000
O    -4.720000000    -0.686000000     0.994000000
H    -4.143000000     0.072000000     1.093000000
H    -5.221000000    -0.713000000     1.808000000
O    -1.639000000    -1.369000000     6.479000000
H    -2.208000000    -0.664000000     6.788000000
H    -0.884000000    -0.919000000     6.100000000
O    -3.051000000     1.711000000    -4.350000000
H    -2.476000000     2.469000000    -4.243000000
H    -3.860000000     1.960000000    -3.902000000
O     2.751000000     3.694000000     4.569000000
H     2.327000000     3.365000000     5.362000000
H     3.607000000     4.004000000     4.866000000
O    -5.592000000     0.746000000    -1.244000000
H    -5.681000000     0.039000000    -1.884000000
H    -5.453000000     0.297000000    -0.410000000
O    -0.339000000    -4.193000000     3.701000000
H     0.510000000    -3.888000000     4.022000000
H    -0.732000000    -4.639000000     4.451000000
O     5.089000000     1.547000000     3.941000000
H     5.655000000     2.287000000     3.724000000
H     4.589000000     1.385000000     3.140000000
O     1.288000000     4.278000000    -0.863000000
H     1.661000000     3.544000000    -1.351000000
H     1.651000000     4.189000000     0.018000000
O    -4.901000000     2.894000000    -2.705000000
H    -4.462000000     3.588000000    -2.214000000
H    -5.485000000     2.483000000    -2.068000000
O     1.869000000     2.069000000     6.805000000
H     2.309000000     1.549000000     6.133000000
H     0.940000000     1.868000000     6.694000000
O     0.340000000    -4.073000000     6.384000000
H     0.818000000    -3.439000000     5.849000000
H     0.161000000    -3.609000000     7.201000000
O     0.528000000    -0.541000000    -4.255000000
H    -0.103000000    -0.263000000    -4.920000000
H     0.038000000    -1.148000000    -3.699000000
O    -1.019000000     5.278000000    -1.295000000
H    -0.148000000     4.891000000    -1.205000000
H    -0.934000000     6.150000000    -0.908000000
O    -0.454000000     2.682000000     1.989000000
H    -0.675000000     1.778000000     1.768000000
H     0.286000000     2.894000000     1.420000000
O    -2.381000000    -3.933000000    -4.643000000
H    -2.289000000    -4.805000000    -4.257000000
H    -1.768000000    -3.930000000    -5.378000000
O     6.324000000    -0.877000000     4.593000000
H     6.073000000    -0.055000000     4.170000000
H     6.820000000    -0.607000000     5.365000000
O     3.213000000     0.271000000     5.307000000
H     3.770000000     1.031000000     5.138000000
H     2.916000000    -0.006000000     4.440000000
O     3.374000000    -5.123000000     4.279000000
H     2.954000000    -4.287000000     4.076000000
H     4.192000000    -4.881000000     4.713000000
