158
-3010.43814
C     0.956000000    -0.556000000    -0.921000000
H     1.617000000    -0.761000000    -1.759000000
C    -0.327000000    -0.282000000    -1.238000000
H    -0.513000000    -0.223000000    -2.307000000
C    -1.180000000     0.091000000    -0.208000000
H    -2.180000000     0.462000000    -0.408000000
C    -0.717000000     0.144000000     1.132000000
H    -1.399000000     0.469000000     1.915000000
C     0.606000000    -0.091000000     1.417000000
H     0.873000000     0.075000000     2.457000000
C     1.476000000    -0.384000000     0.400000000
C     2.978000000    -0.426000000     0.573000000
O     3.656000000    -0.737000000    -0.399000000
O     3.319000000    -0.067000000     1.665000000
O    -2.105000000     5.743000000    -2.659000000
H    -2.443000000     6.249000000    -1.920000000
H    -2.076000000     6.367000000    -3.384000000
O    -0.312000000    -0.701000000     5.272000000
H    -0.045000000    -1.516000000     4.847000000
H     0.442000000    -0.452000000     5.808000000
O     7.456000000    -2.561000000     0.814000000
H     7.501000000    -3.254000000     1.472000000
H     7.077000000    -1.814000000     1.278000000
O     4.684000000     1.073000000     5.141000000
H     5.398000000     1.231000000     4.524000000
H     3.890000000     1.276000000     4.647000000
O     4.295000000    -4.033000000     0.835000000
H     4.798000000    -3.219000000     0.791000000
H     4.722000000    -4.613000000     0.204000000
O     4.039000000     0.527000000    -2.552000000
H     3.314000000     0.526000000    -3.177000000
H     3.794000000    -0.131000000    -1.901000000
O    -0.481000000     3.539000000     3.812000000
H    -1.253000000     3.120000000     3.432000000
H    -0.325000000     4.303000000     3.257000000
O     3.125000000    -4.904000000     3.195000000
H     3.424000000    -4.590000000     2.341000000
H     2.603000000    -5.681000000     2.995000000
O     3.162000000    -5.557000000    -3.727000000
H     2.912000000    -4.744000000    -3.288000000
H     3.925000000    -5.319000000    -4.255000000
O    -2.374000000    -4.683000000    -4.217000000
H    -2.368000000    -4.046000000    -3.503000000
H    -3.272000000    -4.666000000    -4.546000000
O    -2.719000000    -2.338000000     4.100000000
H    -1.916000000    -2.121000000     4.575000000
H    -3.421000000    -1.967000000     4.635000000
O    -3.533000000    -2.042000000     1.303000000
H    -3.382000000    -1.819000000     2.222000000
H    -2.713000000    -2.445000000     1.017000000
O     1.687000000    -3.670000000    -2.295000000
H     1.339000000    -3.367000000    -1.456000000
H     1.021000000    -4.271000000    -2.628000000
O     1.873000000     0.721000000    -4.526000000
H     2.589000000     0.734000000    -5.161000000
H     1.187000000     0.205000000    -4.950000000
O    -1.275000000    -3.452000000     0.407000000
H    -0.349000000    -3.591000000     0.209000000
H    -1.691000000    -3.357000000    -0.450000000
O    -5.560000000    -2.186000000    -1.156000000
H    -5.652000000    -1.493000000    -1.810000000
H    -6.059000000    -1.873000000    -0.402000000
O     1.245000000    -3.537000000     0.658000000
H     2.161000000    -3.286000000     0.771000000
H     1.078000000    -4.160000000     1.365000000
O     1.255000000    -3.231000000    -5.394000000
H     2.171000000    -2.954000000    -5.404000000
H     0.943000000    -2.995000000    -4.521000000
O     5.240000000     3.019000000    -1.092000000
H     4.980000000     2.117000000    -1.277000000
H     4.928000000     3.517000000    -1.847000000
O     1.539000000     2.477000000     5.412000000
H     2.023000000     2.172000000     4.645000000
H     0.690000000     2.752000000     5.066000000
O     4.456000000    -2.428000000    -2.284000000
H     4.738000000    -1.652000000    -1.800000000
H     3.681000000    -2.735000000    -1.813000000
O     6.032000000    -2.429000000     4.582000000
H     5.216000000    -2.192000000     4.143000000
H     6.406000000    -3.121000000     4.037000000
O     7.288000000    -2.932000000    -2.057000000
H     7.154000000    -2.677000000    -1.144000000
H     6.428000000    -3.233000000    -2.350000000
O     0.717000000    -2.835000000     3.955000000
H     0.384000000    -2.943000000     3.064000000
H     0.703000000    -3.718000000     4.324000000
O    -7.037000000     2.021000000     0.599000000
H    -6.427000000     1.396000000     0.992000000
H    -7.461000000     2.444000000     1.345000000
O     6.135000000     1.958000000     3.063000000
H     5.818000000     2.563000000     2.392000000
H     6.770000000     2.469000000     3.565000000
O    -2.871000000    -0.861000000    -4.317000000
H    -3.378000000    -1.320000000    -4.987000000
H    -1.970000000    -0.887000000    -4.639000000
O    -2.495000000    -2.915000000    -2.103000000
H    -2.345000000    -2.006000000    -2.364000000
H    -3.342000000    -2.899000000    -1.657000000
O     5.861000000    -0.475000000     1.999000000
H     5.983000000     0.418000000     2.322000000
H     4.913000000    -0.602000000     1.996000000
O    -5.417000000     0.228000000     1.382000000
H    -4.827000000    -0.471000000     1.100000000
H    -5.223000000     0.343000000     2.313000000
O     2.864000000    -1.496000000     6.526000000
H     3.157000000    -1.486000000     5.615000000
H     2.499000000    -0.622000000     6.670000000
O    -0.139000000    -0.623000000    -5.605000000
H    -0.130000000    -1.356000000    -6.221000000
H    -0.420000000     0.127000000    -6.129000000
O    -6.673000000     0.475000000    -2.361000000
H    -5.861000000     0.833000000    -2.720000000
H    -6.843000000     1.003000000    -1.581000000
O     5.848000000     4.032000000     1.228000000
H     6.438000000     4.557000000     0.687000000
H     5.454000000     3.409000000     0.617000000
O    -3.570000000     3.939000000    -1.205000000
H    -2.952000000     4.257000000    -1.864000000
H    -4.033000000     3.222000000    -1.638000000
O     2.773000000     1.935000000     3.103000000
H     2.792000000     2.546000000     2.367000000
H     2.848000000     1.070000000     2.698000000
O    -3.862000000     1.970000000    -3.417000000
H    -3.456000000     1.149000000    -3.696000000
H    -3.836000000     2.526000000    -4.196000000
O     6.325000000     1.572000000    -3.733000000
H     5.582000000     1.200000000    -3.257000000
H     7.088000000     1.116000000    -3.380000000
O    -1.349000000     3.628000000     0.446000000
H    -1.808000000     3.027000000     1.033000000
H    -2.036000000     3.985000000    -0.116000000
O    -5.099000000    -4.564000000     0.024000000
H    -5.099000000    -3.641000000    -0.228000000
H    -4.937000000    -4.555000000     0.967000000
O    -5.430000000     5.273000000     0.639000000
H    -6.320000000     5.018000000     0.397000000
H    -4.868000000     4.758000000     0.060000000
O     2.593000000     3.212000000    -3.364000000
H     1.657000000     3.402000000    -3.432000000
H     2.652000000     2.261000000    -3.453000000
O    -0.406000000     3.972000000    -3.456000000
H    -0.829000000     4.612000000    -2.885000000
H    -1.077000000     3.308000000    -3.611000000
O     1.364000000     2.670000000     0.206000000
H     1.549000000     1.772000000    -0.066000000
H     0.428000000     2.672000000     0.406000000
O    -2.946000000     2.463000000     2.894000000
H    -3.804000000     2.873000000     2.788000000
H    -3.059000000     1.855000000     3.624000000
O    -2.542000000     1.135000000     5.083000000
H    -1.829000000     0.498000000     5.033000000
H    -3.308000000     0.617000000     5.331000000
O     7.906000000     0.805000000    -0.377000000
H     8.361000000     0.387000000    -1.108000000
H     7.061000000     0.358000000    -0.334000000
O     3.178000000    -1.447000000     3.871000000
H     3.295000000    -0.957000000     3.057000000
H     2.335000000    -1.889000000     3.766000000
