158
-3057.40739
C     0.963000000     0.829000000    -0.773000000
H     1.600000000     1.509000000    -1.333000000
C    -0.425000000     0.781000000    -1.001000000
H    -0.825000000     1.358000000    -1.831000000
C    -1.188000000    -0.060000000    -0.222000000
H    -2.258000000    -0.108000000    -0.462000000
C    -0.647000000    -0.819000000     0.774000000
H    -1.314000000    -1.437000000     1.368000000
C     0.720000000    -0.724000000     1.012000000
H     1.130000000    -1.323000000     1.821000000
C     1.513000000     0.183000000     0.325000000
C     2.968000000     0.299000000     0.614000000
O     3.618000000     1.072000000    -0.059000000
O     3.518000000    -0.316000000     1.545000000
O    -1.096000000     1.894000000     3.128000000
H    -0.569000000     1.121000000     2.926000000
H    -1.873000000     1.807000000     2.575000000
O    -2.127000000    -3.477000000     6.164000000
H    -3.031000000    -3.622000000     6.443000000
H    -2.201000000    -2.911000000     5.395000000
O    -0.118000000     3.536000000    -6.432000000
H     0.174000000     3.042000000    -7.198000000
H    -0.799000000     2.989000000    -6.039000000
O    -5.859000000    -1.274000000    -4.052000000
H    -5.500000000    -0.700000000    -3.376000000
H    -5.796000000    -2.153000000    -3.679000000
O     6.074000000     0.411000000     2.184000000
H     5.231000000     0.078000000     1.876000000
H     6.724000000    -0.092000000     1.694000000
O    -3.442000000     0.959000000     5.063000000
H    -3.441000000     0.929000000     6.020000000
H    -2.520000000     1.059000000     4.826000000
O    -0.197000000     5.378000000    -3.061000000
H     0.735000000     5.595000000    -3.097000000
H    -0.513000000     5.534000000    -3.951000000
O     4.250000000    -2.709000000    -0.739000000
H     4.217000000    -1.921000000    -0.196000000
H     3.737000000    -2.486000000    -1.516000000
O     6.364000000     2.444000000    -2.974000000
H     6.720000000     2.934000000    -2.233000000
H     5.865000000     1.732000000    -2.573000000
O     3.820000000     3.039000000    -4.068000000
H     3.785000000     3.877000000    -4.529000000
H     4.491000000     3.164000000    -3.396000000
O     0.550000000    -4.144000000    -1.127000000
H     0.980000000    -4.275000000    -0.282000000
H     0.977000000    -4.770000000    -1.713000000
O    -5.297000000    -3.996000000    -3.139000000
H    -4.770000000    -4.542000000    -2.557000000
H    -6.191000000    -4.084000000    -2.808000000
O    -5.732000000    -4.670000000    -0.465000000
H    -5.377000000    -5.250000000     0.209000000
H    -5.631000000    -3.791000000    -0.102000000
O    -1.722000000    -1.809000000     4.019000000
H    -0.852000000    -1.634000000     4.376000000
H    -1.605000000    -2.584000000     3.471000000
O     3.053000000     0.583000000    -3.566000000
H     3.386000000     1.404000000    -3.927000000
H     2.104000000     0.641000000    -3.674000000
O    -3.294000000     1.458000000     1.631000000
H    -3.504000000     0.934000000     0.858000000
H    -3.857000000     2.228000000     1.558000000
O    -0.460000000    -2.104000000    -2.458000000
H    -1.128000000    -1.592000000    -2.002000000
H    -0.383000000    -2.908000000    -1.944000000
O     5.048000000     5.892000000     0.212000000
H     4.755000000     6.138000000     1.089000000
H     4.733000000     4.996000000     0.097000000
O     6.946000000    -2.162000000    -2.608000000
H     6.365000000    -1.416000000    -2.457000000
H     7.806000000    -1.768000000    -2.757000000
O    -2.283000000    -4.059000000     2.707000000
H    -2.436000000    -4.620000000     1.947000000
H    -2.369000000    -4.645000000     3.459000000
O    -2.614000000    -4.279000000    -1.161000000
H    -2.603000000    -4.934000000    -0.464000000
H    -1.696000000    -4.187000000    -1.418000000
O    -1.603000000     0.977000000    -5.802000000
H    -2.117000000     1.736000000    -5.528000000
H    -2.201000000     0.235000000    -5.703000000
O     7.246000000    -1.257000000    -0.044000000
H     6.477000000    -1.611000000    -0.491000000
H     7.975000000    -1.788000000    -0.365000000
O     0.975000000     3.414000000     4.051000000
H     1.158000000     3.469000000     3.113000000
H     0.299000000     2.741000000     4.124000000
O     2.406000000    -2.088000000    -2.534000000
H     1.520000000    -2.433000000    -2.426000000
H     2.283000000    -1.147000000    -2.655000000
O     3.818000000    -2.569000000     2.898000000
H     4.706000000    -2.640000000     3.249000000
H     3.831000000    -1.767000000     2.375000000
O     2.417000000     0.423000000     3.864000000
H     2.920000000     0.048000000     3.141000000
H     2.853000000     1.253000000     4.054000000
O    -6.516000000     2.717000000    -3.666000000
H    -6.928000000     2.961000000    -2.837000000
H    -5.629000000     2.450000000    -3.424000000
O    -4.163000000    -2.005000000    -0.040000000
H    -4.100000000    -2.001000000     0.915000000
H    -3.801000000    -2.852000000    -0.300000000
O     5.121000000     0.116000000    -1.986000000
H     4.434000000     0.106000000    -2.653000000
H     4.656000000     0.280000000    -1.166000000
O    -4.396000000    -1.441000000     2.740000000
H    -3.556000000    -1.433000000     3.198000000
H    -4.567000000    -0.521000000     2.538000000
O    -3.010000000     3.338000000    -5.375000000
H    -3.343000000     2.793000000    -4.662000000
H    -3.758000000     3.874000000    -5.637000000
O     3.472000000     0.741000000     6.669000000
H     3.235000000     0.173000000     7.402000000
H     3.438000000     0.168000000     5.902000000
O    -5.720000000     1.079000000     3.328000000
H    -4.839000000     1.334000000     3.602000000
H    -6.302000000     1.543000000     3.929000000
O    -4.998000000    -0.032000000    -1.471000000
H    -4.620000000    -0.692000000    -0.890000000
H    -5.826000000     0.207000000    -1.054000000
O     0.879000000    -1.712000000     4.681000000
H     1.296000000    -0.879000000     4.462000000
H     1.540000000    -2.184000000     5.188000000
O     7.034000000     3.252000000     2.472000000
H     6.968000000     2.358000000     2.137000000
H     7.925000000     3.313000000     2.819000000
O     4.324000000     2.906000000     2.398000000
H     5.225000000     3.198000000     2.258000000
H     4.148000000     2.313000000     1.668000000
O     3.718000000     3.646000000    -0.792000000
H     3.086000000     3.651000000    -1.511000000
H     3.705000000     2.746000000    -0.467000000
O    -3.856000000     1.673000000    -3.420000000
H    -3.171000000     2.099000000    -2.904000000
H    -4.007000000     0.840000000    -2.974000000
O     2.478000000    -4.250000000     1.040000000
H     2.362000000    -3.837000000     1.896000000
H     3.178000000    -3.746000000     0.624000000
O    -4.385000000     3.978000000     1.519000000
H    -4.872000000     4.592000000     0.969000000
H    -4.634000000     4.209000000     2.414000000
O     0.501000000    -0.219000000    -4.198000000
H    -0.109000000     0.281000000    -4.740000000
H    -0.058000000    -0.807000000    -3.689000000
O    -2.194000000     3.546000000    -2.200000000
H    -1.294000000     3.846000000    -2.072000000
H    -2.698000000     4.350000000    -2.329000000
O     1.624000000     4.238000000     1.571000000
H     1.443000000     4.379000000     0.642000000
H     2.508000000     3.872000000     1.590000000
O     5.801000000     0.412000000     5.084000000
H     5.844000000     0.304000000     4.134000000
H     5.722000000     1.357000000     5.215000000
O     2.601000000    -4.534000000     4.268000000
H     3.028000000    -3.795000000     3.834000000
H     2.379000000    -4.205000000     5.139000000
O    -6.642000000     2.111000000     0.430000000
H    -6.184000000     2.940000000     0.289000000
H    -6.318000000     1.799000000     1.275000000
