158
-3021.69572
C     1.392000000    -0.281000000    -0.638000000
H     2.339000000    -0.557000000    -1.093000000
C     0.178000000    -0.332000000    -1.354000000
H     0.188000000    -0.566000000    -2.416000000
C    -1.030000000    -0.053000000    -0.628000000
H    -2.006000000    -0.036000000    -1.250000000
C    -1.044000000     0.274000000     0.704000000
H    -1.985000000     0.347000000     1.243000000
C     0.154000000     0.285000000     1.366000000
H     0.141000000     0.566000000     2.416000000
C     1.392000000     0.087000000     0.727000000
C     2.631000000     0.155000000     1.642000000
O     3.612000000     0.623000000     1.161000000
O     2.557000000    -0.100000000     2.793000000
O    -3.209000000    -1.834000000     4.688000000
H    -2.331000000    -2.119000000     4.436000000
H    -3.127000000    -0.889000000     4.815000000
O     0.390000000    -1.436000000    -5.550000000
H    -0.117000000    -2.213000000    -5.784000000
H    -0.197000000    -0.703000000    -5.736000000
O    -2.445000000    -0.565000000    -5.645000000
H    -2.329000000    -1.152000000    -4.897000000
H    -2.369000000     0.314000000    -5.273000000
O    -1.590000000    -5.405000000    -0.952000000
H    -0.959000000    -5.829000000    -0.370000000
H    -2.275000000    -5.082000000    -0.367000000
O     7.807000000    -2.056000000     2.174000000
H     7.636000000    -2.979000000     1.986000000
H     7.016000000    -1.602000000     1.883000000
O     1.830000000     0.480000000    -7.346000000
H     2.786000000     0.450000000    -7.321000000
H     1.553000000    -0.251000000    -6.794000000
O     3.465000000     4.571000000    -2.024000000
H     2.985000000     5.249000000    -1.548000000
H     3.241000000     3.757000000    -1.573000000
O     4.350000000    -2.292000000     0.937000000
H     4.493000000    -2.364000000    -0.007000000
H     4.221000000    -1.356000000     1.089000000
O     5.317000000     0.373000000    -1.332000000
H     5.437000000     0.593000000    -2.255000000
H     5.502000000    -0.565000000    -1.284000000
O    -1.431000000     4.845000000     2.750000000
H    -2.295000000     4.983000000     3.138000000
H    -1.600000000     4.313000000     1.972000000
O     1.852000000    -2.614000000     3.256000000
H     2.246000000    -1.742000000     3.281000000
H     2.595000000    -3.209000000     3.157000000
O    -2.398000000    -2.102000000    -3.271000000
H    -2.854000000    -2.114000000    -2.430000000
H    -1.630000000    -2.656000000    -3.135000000
O     7.837000000     1.566000000     2.346000000
H     7.473000000     2.004000000     1.577000000
H     7.363000000     0.736000000     2.396000000
O     5.560000000     2.728000000     5.865000000
H     6.259000000     2.150000000     5.559000000
H     4.869000000     2.637000000     5.208000000
O    -0.414000000    -3.540000000    -2.451000000
H     0.019000000    -2.940000000    -1.843000000
H    -0.657000000    -4.293000000    -1.912000000
O    -7.183000000     1.461000000    -1.910000000
H    -7.899000000     1.155000000    -1.355000000
H    -6.692000000     0.668000000    -2.127000000
O    -0.460000000    -3.115000000     0.510000000
H    -0.789000000    -2.326000000     0.080000000
H    -1.072000000    -3.268000000     1.230000000
O    -0.675000000    -4.363000000    -5.000000000
H    -1.523000000    -4.762000000    -4.802000000
H    -0.282000000    -4.199000000    -4.142000000
O     5.857000000    -0.206000000     5.211000000
H     6.812000000    -0.142000000     5.211000000
H     5.678000000    -1.125000000     5.411000000
O     2.984000000     2.134000000    -0.901000000
H     3.112000000     1.428000000    -1.535000000
H     3.253000000     1.756000000    -0.064000000
O    -1.327000000     0.393000000     6.200000000
H    -1.353000000     0.938000000     5.414000000
H    -1.867000000     0.862000000     6.836000000
O     2.556000000    -4.116000000    -0.741000000
H     1.981000000    -3.993000000     0.014000000
H     2.016000000    -4.578000000    -1.382000000
O     4.721000000    -2.603000000    -2.036000000
H     4.654000000    -2.075000000    -2.832000000
H     4.010000000    -3.239000000    -2.109000000
O     3.543000000    -0.012000000     7.063000000
H     2.666000000     0.052000000     6.685000000
H     4.134000000     0.149000000     6.327000000
O    -0.756000000    -2.256000000     3.785000000
H    -0.666000000    -1.330000000     4.009000000
H     0.143000000    -2.585000000     3.759000000
O     3.986000000     2.212000000     3.689000000
H     3.591000000     1.411000000     3.345000000
H     4.169000000     2.741000000     2.912000000
O    -5.664000000    -0.749000000    -2.065000000
H    -6.116000000    -1.587000000    -1.976000000
H    -4.827000000    -0.970000000    -2.473000000
O    -3.642000000    -2.629000000    -0.649000000
H    -4.060000000    -2.148000000     0.065000000
H    -3.641000000    -3.540000000    -0.355000000
O     2.573000000    -2.375000000     6.719000000
H     3.164000000    -1.632000000     6.839000000
H     2.617000000    -2.852000000     7.548000000
O     5.802000000    -0.083000000     2.384000000
H     5.570000000     0.119000000     3.291000000
H     5.050000000     0.216000000     1.872000000
O    -5.462000000    -2.059000000     1.622000000
H    -5.399000000    -2.572000000     2.428000000
H    -6.303000000    -2.312000000     1.242000000
O    -2.551000000     1.943000000    -4.760000000
H    -1.731000000     2.219000000    -5.170000000
H    -3.234000000     2.297000000    -5.329000000
O    -0.272000000     1.947000000    -6.117000000
H    -0.325000000     1.695000000    -7.039000000
H     0.662000000     2.079000000    -5.958000000
O    -5.095000000     3.953000000     1.037000000
H    -4.394000000     3.601000000     1.586000000
H    -4.808000000     4.840000000     0.821000000
O    -4.581000000     0.405000000     1.881000000
H    -4.727000000    -0.510000000     1.640000000
H    -4.453000000     0.855000000     1.046000000
O     1.528000000     2.859000000     7.260000000
H     1.535000000     2.309000000     6.477000000
H     1.337000000     3.738000000     6.933000000
O    -2.155000000     1.898000000     3.932000000
H    -1.431000000     2.445000000     3.626000000
H    -2.936000000     2.431000000     3.785000000
O     5.316000000     4.430000000     2.461000000
H     5.997000000     4.856000000     2.983000000
H     4.841000000     5.153000000     2.052000000
O    -4.138000000     1.407000000    -0.558000000
H    -4.531000000     1.036000000    -1.348000000
H    -4.050000000     2.340000000    -0.750000000
O     3.961000000    -4.352000000     2.825000000
H     4.190000000    -3.908000000     2.009000000
H     4.516000000    -5.132000000     2.837000000
O     4.263000000    -0.856000000    -4.179000000
H     5.208000000    -0.715000000    -4.245000000
H     3.882000000    -0.210000000    -4.774000000
O    -6.598000000     4.087000000    -1.270000000
H    -6.186000000     4.073000000    -0.406000000
H    -6.638000000     3.166000000    -1.530000000
O    -0.342000000     2.945000000    -1.549000000
H    -0.789000000     2.205000000    -1.960000000
H     0.344000000     2.544000000    -1.016000000
O    -3.302000000     3.691000000    -2.896000000
H    -2.799000000     3.220000000    -3.560000000
H    -3.797000000     4.345000000    -3.389000000
O    -2.128000000     3.051000000     0.829000000
H    -1.704000000     2.244000000     1.122000000
H    -1.927000000     3.101000000    -0.106000000
O    -4.937000000     2.292000000     3.783000000
H    -5.667000000     2.697000000     3.315000000
H    -4.768000000     1.480000000     3.306000000
O     6.178000000     2.456000000     0.431000000
H     5.723000000     3.022000000     1.054000000
H     5.509000000     1.838000000     0.137000000
O     1.578000000     1.283000000     4.913000000
H     1.807000000     0.444000000     4.513000000
H     2.182000000     1.911000000     4.516000000
