158
-3026.42432
C     1.180000000     0.810000000     0.335000000
H     1.952000000     1.545000000     0.550000000
C     0.809000000     0.525000000    -0.944000000
H     1.261000000     0.951000000    -1.837000000
C    -0.267000000    -0.367000000    -1.091000000
H    -0.515000000    -0.695000000    -2.093000000
C    -0.979000000    -0.890000000    -0.047000000
H    -1.718000000    -1.672000000    -0.207000000
C    -0.541000000    -0.625000000     1.244000000
H    -1.209000000    -0.912000000     2.053000000
C     0.497000000     0.262000000     1.443000000
C     0.909000000     0.688000000     2.848000000
O     2.057000000     0.909000000     3.073000000
O     0.140000000     0.519000000     3.783000000
O     0.330000000     5.447000000    -4.501000000
H     0.323000000     5.739000000    -5.412000000
H     0.903000000     4.680000000    -4.500000000
O    -3.325000000    -0.148000000     5.819000000
H    -2.879000000    -0.949000000     5.543000000
H    -2.692000000     0.549000000     5.647000000
O     1.677000000     0.471000000    -7.402000000
H     1.399000000     0.285000000    -6.505000000
H     1.208000000     1.271000000    -7.637000000
O    -2.013000000     0.423000000    -4.284000000
H    -2.116000000    -0.439000000    -3.880000000
H    -2.120000000     1.041000000    -3.560000000
O    -2.093000000    -3.468000000    -6.641000000
H    -2.408000000    -3.053000000    -5.838000000
H    -1.193000000    -3.726000000    -6.440000000
O     4.690000000     1.860000000    -4.329000000
H     5.549000000     2.251000000    -4.487000000
H     4.451000000     2.153000000    -3.449000000
O     4.163000000    -0.566000000    -6.191000000
H     4.373000000     0.289000000    -5.816000000
H     3.345000000    -0.424000000    -6.667000000
O     3.086000000     3.000000000    -1.943000000
H     2.399000000     3.040000000    -1.278000000
H     3.705000000     2.351000000    -1.609000000
O     2.758000000    -1.941000000     1.049000000
H     2.975000000    -1.886000000     0.118000000
H     2.857000000    -1.046000000     1.372000000
O     1.960000000    -4.350000000     2.318000000
H     1.017000000    -4.228000000     2.425000000
H     2.242000000    -3.596000000     1.800000000
O    -0.923000000    -3.900000000     3.329000000
H    -1.385000000    -3.854000000     2.492000000
H    -1.002000000    -4.816000000     3.595000000
O    -5.028000000    -1.196000000    -3.784000000
H    -5.447000000    -1.399000000    -2.948000000
H    -4.282000000    -1.794000000    -3.829000000
O     1.358000000     6.554000000    -0.043000000
H     1.452000000     7.097000000    -0.825000000
H     1.222000000     5.669000000    -0.380000000
O    -4.664000000    -0.016000000     3.492000000
H    -4.473000000     0.526000000     4.258000000
H    -5.045000000    -0.816000000     3.855000000
O     1.198000000    -3.194000000    -2.690000000
H     0.273000000    -3.437000000    -2.722000000
H     1.666000000    -4.029000000    -2.694000000
O     1.918000000     3.278000000    -4.605000000
H     2.329000000     3.230000000    -3.742000000
H     2.442000000     2.694000000    -5.153000000
O    -5.769000000     1.803000000    -2.281000000
H    -6.388000000     1.073000000    -2.255000000
H    -4.957000000     1.441000000    -1.925000000
O    -2.364000000    -4.766000000     1.141000000
H    -3.229000000    -4.622000000     1.524000000
H    -2.344000000    -5.701000000     0.938000000
O    -1.245000000    -4.173000000    -1.995000000
H    -1.904000000    -4.838000000    -2.198000000
H    -1.052000000    -4.304000000    -1.067000000
O     1.638000000    -1.192000000    -4.799000000
H     2.371000000    -0.744000000    -4.376000000
H     1.218000000    -1.683000000    -4.093000000
O     5.699000000    -1.003000000     3.512000000
H     6.105000000    -1.535000000     4.196000000
H     4.758000000    -1.104000000     3.657000000
O     4.995000000     1.379000000    -1.116000000
H     5.871000000     1.090000000    -1.372000000
H     4.759000000     0.809000000    -0.384000000
O    -1.944000000     1.825000000     4.469000000
H    -2.095000000     2.253000000     3.626000000
H    -1.084000000     1.415000000     4.378000000
O     3.138000000    -1.594000000    -1.544000000
H     3.653000000    -1.636000000    -2.349000000
H     2.324000000    -2.051000000    -1.756000000
O     2.920000000    -1.542000000     3.875000000
H     2.326000000    -0.799000000     3.763000000
H     2.556000000    -2.226000000     3.314000000
O    -1.126000000    -1.873000000     5.051000000
H    -0.714000000    -1.361000000     4.355000000
H    -1.197000000    -2.756000000     4.689000000
O     2.918000000     2.684000000     4.542000000
H     2.497000000     2.235000000     3.810000000
H     3.479000000     3.341000000     4.130000000
O    -3.423000000     0.825000000    -0.953000000
H    -2.533000000     0.489000000    -0.840000000
H    -3.963000000     0.261000000    -0.399000000
O    -4.513000000    -3.456000000    -0.553000000
H    -4.783000000    -2.773000000     0.061000000
H    -3.712000000    -3.817000000    -0.173000000
O     4.407000000     0.800000000     1.790000000
H     4.853000000     0.133000000     2.312000000
H     3.543000000     0.882000000     2.194000000
O    -4.869000000    -1.025000000     0.939000000
H    -4.732000000    -0.667000000     1.816000000
H    -5.697000000    -1.500000000     1.000000000
O     0.195000000    -1.773000000     7.310000000
H     0.924000000    -1.307000000     6.899000000
H    -0.512000000    -1.726000000     6.666000000
O    -0.631000000     3.297000000    -2.797000000
H     0.017000000     2.811000000    -3.307000000
H    -0.638000000     4.170000000    -3.189000000
O     3.024000000     3.342000000     7.257000000
H     3.024000000     2.756000000     6.501000000
H     3.943000000     3.396000000     7.519000000
O    -2.940000000    -2.896000000    -3.819000000
H    -2.898000000    -3.706000000    -4.327000000
H    -2.368000000    -3.054000000    -3.068000000
O    -1.095000000     2.629000000     7.143000000
H    -1.356000000     2.105000000     6.386000000
H    -0.967000000     3.510000000     6.791000000
O     4.901000000     0.820000000     5.815000000
H     5.807000000     1.122000000     5.869000000
H     4.538000000     1.284000000     5.060000000
O     4.200000000     4.704000000     3.228000000
H     4.782000000     5.464000000     3.205000000
H     3.327000000     5.076000000     3.354000000
O    -2.541000000     3.842000000    -0.081000000
H    -2.234000000     3.637000000    -0.965000000
H    -2.928000000     4.714000000    -0.159000000
O    -5.194000000     1.240000000    -5.162000000
H    -5.023000000     0.442000000    -4.662000000
H    -5.401000000     1.899000000    -4.499000000
O     1.985000000    -3.302000000    -6.400000000
H     1.797000000    -2.536000000    -5.858000000
H     2.732000000    -3.721000000    -5.973000000
O     4.340000000    -1.817000000    -3.867000000
H     5.248000000    -2.058000000    -3.684000000
H     4.363000000    -1.454000000    -4.752000000
O    -2.204000000     0.979000000    -7.008000000
H    -2.988000000     1.521000000    -7.093000000
H    -2.149000000     0.781000000    -6.074000000
O     0.866000000     3.788000000    -0.535000000
H     0.185000000     3.440000000    -1.111000000
H     0.449000000     3.839000000     0.325000000
O    -0.393000000     3.929000000     1.946000000
H    -1.323000000     3.705000000     1.906000000
H    -0.216000000     4.047000000     2.880000000
O    -3.413000000     3.031000000     2.358000000
H    -3.897000000     2.206000000     2.317000000
H    -3.279000000     3.276000000     1.442000000
O     6.024000000     3.347000000     1.262000000
H     5.657000000     3.805000000     2.018000000
H     5.261000000     3.074000000     0.753000000
O     2.045000000     0.246000000     6.316000000
H     2.925000000     0.223000000     5.940000000
H     1.482000000     0.518000000     5.590000000
