158
-3004.34473
C     0.461000000    -1.220000000    -0.595000000
H     0.581000000    -2.113000000    -1.203000000
C    -0.679000000    -0.516000000    -0.868000000
H    -1.328000000    -0.812000000    -1.688000000
C    -1.107000000     0.625000000    -0.103000000
H    -1.991000000     1.221000000    -0.445000000
C    -0.261000000     1.046000000     0.927000000
H    -0.613000000     1.944000000     1.430000000
C     0.947000000     0.360000000     1.161000000
H     1.768000000     0.623000000     1.822000000
C     1.331000000    -0.776000000     0.388000000
C     2.630000000    -1.511000000     0.597000000
O     2.993000000    -2.446000000    -0.125000000
O     3.536000000    -0.974000000     1.164000000
O    -1.591000000    -0.694000000    -5.667000000
H    -1.746000000    -1.510000000    -6.143000000
H    -1.898000000    -0.874000000    -4.778000000
O     3.314000000     4.120000000     3.420000000
H     3.198000000     3.871000000     2.503000000
H     2.425000000     4.162000000     3.771000000
O     4.642000000     0.741000000     6.432000000
H     4.318000000     0.769000000     5.531000000
H     4.735000000     1.660000000     6.682000000
O     4.413000000    -4.668000000    -3.767000000
H     5.136000000    -4.534000000    -3.154000000
H     3.929000000    -3.842000000    -3.752000000
O    -2.254000000    -5.370000000     1.172000000
H    -2.608000000    -4.607000000     0.716000000
H    -2.469000000    -6.110000000     0.604000000
O     3.727000000     0.616000000     3.446000000
H     3.620000000     0.027000000     2.699000000
H     4.602000000     0.988000000     3.334000000
O     4.672000000    -6.723000000     0.527000000
H     5.389000000    -7.357000000     0.547000000
H     4.740000000    -6.310000000    -0.333000000
O    -6.967000000     4.494000000    -1.814000000
H    -6.571000000     5.321000000    -1.539000000
H    -6.995000000     3.966000000    -1.016000000
O     3.379000000     2.232000000    -2.513000000
H     2.579000000     1.883000000    -2.907000000
H     3.742000000     1.497000000    -2.018000000
O     3.066000000    -3.206000000     3.165000000
H     2.306000000    -2.851000000     3.626000000
H     3.403000000    -2.468000000     2.657000000
O    -6.295000000     0.706000000    -3.793000000
H    -6.200000000    -0.145000000    -3.365000000
H    -5.397000000     1.011000000    -3.920000000
O     0.940000000    -0.205000000    -4.520000000
H     0.328000000    -0.433000000    -5.219000000
H     1.487000000     0.485000000    -4.896000000
O     5.290000000    -3.335000000     0.424000000
H     4.532000000    -2.751000000     0.407000000
H     5.089000000    -3.969000000     1.113000000
O     6.048000000    -4.223000000    -1.818000000
H     5.762000000    -3.700000000    -1.069000000
H     6.687000000    -4.836000000    -1.452000000
O     1.382000000     1.141000000     4.741000000
H     0.965000000     1.954000000     4.457000000
H     2.089000000     1.002000000     4.110000000
O    -3.279000000    -2.999000000     0.239000000
H    -4.097000000    -3.295000000     0.638000000
H    -3.546000000    -2.312000000    -0.372000000
O     0.233000000    -2.037000000     3.889000000
H    -0.471000000    -2.685000000     3.872000000
H    -0.218000000    -1.193000000     3.909000000
O     2.549000000    -5.903000000     1.696000000
H     3.397000000    -6.211000000     1.376000000
H     2.752000000    -5.099000000     2.175000000
O     2.782000000    -4.944000000    -0.898000000
H     2.483000000    -5.391000000    -0.106000000
H     2.926000000    -4.038000000    -0.622000000
O     1.077000000    -4.772000000    -3.825000000
H     1.389000000    -3.872000000    -3.912000000
H     1.592000000    -5.136000000    -3.106000000
O     4.713000000    -0.768000000    -2.116000000
H     4.299000000    -1.453000000    -1.591000000
H     4.602000000     0.030000000    -1.599000000
O    -2.517000000    -1.548000000     2.479000000
H    -2.908000000    -2.082000000     1.789000000
H    -1.874000000    -1.004000000     2.025000000
O     7.774000000    -1.552000000     4.546000000
H     6.826000000    -1.611000000     4.426000000
H     7.996000000    -2.317000000     5.076000000
O    -1.692000000     6.707000000    -0.957000000
H    -2.634000000     6.785000000    -0.811000000
H    -1.607000000     6.541000000    -1.896000000
O    -1.107000000     0.115000000     5.112000000
H    -1.159000000     0.040000000     6.065000000
H    -0.276000000     0.562000000     4.952000000
O     6.338000000     1.991000000     2.938000000
H     7.262000000     1.778000000     2.804000000
H     6.236000000     2.864000000     2.559000000
O    -2.263000000     2.417000000    -6.297000000
H    -1.844000000     1.751000000    -6.843000000
H    -2.967000000     1.950000000    -5.848000000
O     2.884000000    -2.082000000    -3.903000000
H     2.214000000    -1.491000000    -4.245000000
H     3.421000000    -1.532000000    -3.334000000
O     5.047000000    -2.276000000     5.083000000
H     4.279000000    -2.507000000     4.561000000
H     4.741000000    -2.315000000     5.990000000
O    -4.571000000     4.998000000    -0.042000000
H    -4.610000000     4.495000000     0.772000000
H    -4.436000000     5.902000000     0.242000000
O     4.098000000    -7.133000000    -2.247000000
H     3.542000000    -7.903000000    -2.371000000
H     3.490000000    -6.436000000    -2.002000000
O    -0.385000000     4.318000000    -5.351000000
H    -0.093000000     3.851000000    -4.568000000
H    -0.867000000     3.662000000    -5.855000000
O    -7.125000000    -0.734000000     1.008000000
H    -7.848000000    -0.975000000     0.428000000
H    -7.527000000    -0.663000000     1.874000000
O    -4.135000000     2.943000000     2.224000000
H    -3.311000000     2.530000000     2.483000000
H    -4.570000000     2.288000000     1.678000000
O    -6.635000000     3.588000000     3.463000000
H    -7.008000000     4.181000000     2.810000000
H    -5.726000000     3.469000000     3.187000000
O     6.409000000    -0.926000000     1.286000000
H     5.808000000    -0.209000000     1.086000000
H     5.902000000    -1.719000000     1.113000000
O    -3.517000000     4.141000000    -2.310000000
H    -4.046000000     4.556000000    -2.991000000
H    -3.796000000     4.565000000    -1.498000000
O    -3.361000000     1.380000000    -3.210000000
H    -3.360000000     2.331000000    -3.106000000
H    -2.533000000     1.186000000    -3.650000000
O     4.287000000     1.051000000    -0.336000000
H     4.111000000     1.946000000    -0.047000000
H     3.751000000     0.504000000     0.238000000
O    -3.940000000    -0.847000000    -1.350000000
H    -3.648000000    -0.127000000    -1.909000000
H    -4.672000000    -1.238000000    -1.826000000
O     6.953000000    -1.924000000    -3.705000000
H     7.021000000    -2.782000000    -3.285000000
H     6.306000000    -1.452000000    -3.181000000
O    -5.844000000    -1.991000000    -2.747000000
H    -6.364000000    -2.656000000    -2.295000000
H    -5.184000000    -2.489000000    -3.229000000
O    -5.225000000     1.184000000     0.540000000
H    -4.731000000     0.626000000    -0.060000000
H    -5.909000000     0.613000000     0.890000000
O    -0.156000000     2.705000000    -2.920000000
H    -0.259000000     1.946000000    -2.347000000
H     0.119000000     3.412000000    -2.336000000
O     0.932000000     4.819000000    -1.249000000
H     1.828000000     5.128000000    -1.115000000
H     0.399000000     5.613000000    -1.225000000
O     0.170000000     4.310000000     1.457000000
H     0.017000000     5.208000000     1.751000000
H     0.486000000     4.402000000     0.559000000
O     0.394000000     3.456000000     3.988000000
H    -0.210000000     4.094000000     4.367000000
H     0.314000000     3.583000000     3.042000000
O     3.610000000     3.519000000     0.683000000
H     4.551000000     3.646000000     0.804000000
H     3.341000000     4.242000000     0.117000000
