158
-3017.75058
C     0.347000000    -1.025000000    -1.001000000
H     0.665000000    -1.749000000    -1.746000000
C    -0.583000000    -0.026000000    -1.169000000
H    -1.095000000     0.013000000    -2.127000000
C    -0.963000000     0.827000000    -0.127000000
H    -1.698000000     1.586000000    -0.275000000
C    -0.240000000     0.712000000     1.047000000
H    -0.560000000     1.340000000     1.875000000
C     0.623000000    -0.377000000     1.276000000
H     1.133000000    -0.463000000     2.232000000
C     1.011000000    -1.241000000     0.237000000
C     2.170000000    -2.151000000     0.295000000
O     2.669000000    -2.555000000    -0.753000000
O     2.544000000    -2.527000000     1.419000000
O    -1.634000000     5.793000000     0.822000000
H    -2.452000000     5.303000000     0.733000000
H    -1.520000000     6.225000000    -0.024000000
O     2.787000000    -2.457000000    -6.163000000
H     3.433000000    -3.109000000    -6.433000000
H     3.004000000    -2.269000000    -5.250000000
O    -3.166000000    -2.230000000    -5.794000000
H    -2.218000000    -2.165000000    -5.673000000
H    -3.369000000    -1.568000000    -6.455000000
O     0.686000000     4.112000000     4.573000000
H     0.446000000     4.990000000     4.870000000
H     0.620000000     4.156000000     3.619000000
O     3.339000000    -2.509000000    -3.551000000
H     3.095000000    -3.005000000    -2.770000000
H     3.800000000    -1.742000000    -3.213000000
O    -0.935000000    -4.063000000     0.119000000
H    -1.195000000    -3.224000000     0.499000000
H    -1.744000000    -4.574000000     0.093000000
O     4.008000000    -0.741000000     2.792000000
H     3.487000000    -1.477000000     2.471000000
H     4.213000000    -0.232000000     2.008000000
O     3.662000000    -7.231000000     1.959000000
H     4.589000000    -7.033000000     2.092000000
H     3.346000000    -6.529000000     1.390000000
O     2.857000000     1.323000000    -3.258000000
H     2.236000000     1.879000000    -2.787000000
H     3.417000000     0.957000000    -2.573000000
O     2.088000000    -3.218000000     3.867000000
H     1.139000000    -3.315000000     3.787000000
H     2.384000000    -3.023000000     2.978000000
O     0.135000000     1.331000000    -5.611000000
H     0.986000000     1.623000000    -5.284000000
H     0.304000000     0.464000000    -5.979000000
O     4.357000000    -4.378000000     0.318000000
H     3.609000000    -3.791000000     0.204000000
H     4.630000000    -4.243000000     1.225000000
O     7.627000000    -3.843000000     2.169000000
H     6.674000000    -3.911000000     2.229000000
H     7.947000000    -4.237000000     2.981000000
O    -0.711000000     1.614000000     5.173000000
H    -1.386000000     1.885000000     4.551000000
H     0.058000000     2.129000000     4.932000000
O    -2.086000000    -1.599000000     1.245000000
H    -3.001000000    -1.318000000     1.236000000
H    -1.627000000    -0.936000000     0.730000000
O    -0.976000000    -1.358000000     5.596000000
H    -0.600000000    -1.184000000     4.733000000
H    -0.919000000    -0.521000000     6.056000000
O    -4.988000000    -0.636000000     0.882000000
H    -5.738000000    -0.593000000     1.475000000
H    -5.368000000    -0.850000000     0.030000000
O     4.757000000    -4.094000000     2.890000000
H     4.402000000    -3.320000000     3.326000000
H     4.766000000    -4.768000000     3.570000000
O    -1.461000000    -5.457000000     2.990000000
H    -0.739000000    -5.380000000     2.366000000
H    -2.097000000    -6.023000000     2.552000000
O     0.947000000    -5.355000000     1.697000000
H     0.687000000    -4.591000000     1.184000000
H     1.719000000    -5.065000000     2.184000000
O     1.061000000    -4.637000000    -1.536000000
H     0.301000000    -4.470000000    -0.979000000
H     1.674000000    -3.933000000    -1.324000000
O    -0.458000000    -5.388000000    -3.858000000
H    -0.053000000    -4.985000000    -3.090000000
H     0.199000000    -6.005000000    -4.179000000
O     4.311000000    -0.464000000    -1.632000000
H     3.637000000    -1.063000000    -1.310000000
H     4.793000000    -0.202000000    -0.848000000
O    -0.461000000    -2.874000000     3.216000000
H    -1.198000000    -3.272000000     3.680000000
H    -0.866000000    -2.243000000     2.620000000
O    -1.900000000     6.415000000    -2.000000000
H    -2.053000000     6.437000000    -2.945000000
H    -1.137000000     5.847000000    -1.894000000
O     4.590000000     1.100000000     0.911000000
H     5.424000000     1.029000000     1.376000000
H     4.532000000     2.022000000     0.662000000
O    -3.548000000     0.829000000    -4.310000000
H    -4.211000000     1.070000000    -4.957000000
H    -2.736000000     0.766000000    -4.811000000
O     0.178000000    -1.887000000    -5.966000000
H     0.011000000    -1.477000000    -5.117000000
H     1.130000000    -1.985000000    -6.000000000
O    -4.051000000     3.486000000    -0.824000000
H    -4.342000000     2.634000000    -1.147000000
H    -4.307000000     3.494000000     0.098000000
O     3.864000000    -6.273000000    -2.221000000
H     3.734000000    -5.397000000    -1.858000000
H     3.189000000    -6.808000000    -1.803000000
O     1.445000000    -6.350000000     4.417000000
H     1.749000000    -5.454000000     4.270000000
H     1.275000000    -6.394000000     5.358000000
O    -1.125000000     3.443000000    -6.247000000
H    -0.827000000     2.543000000    -6.380000000
H    -1.392000000     3.473000000    -5.328000000
O    -4.381000000     2.154000000     2.073000000
H    -3.602000000     2.311000000     2.605000000
H    -4.345000000     1.220000000     1.865000000
O    -6.634000000     3.178000000     3.100000000
H    -6.354000000     4.093000000     3.070000000
H    -5.818000000     2.678000000     3.120000000
O    -3.586000000     4.492000000    -3.597000000
H    -2.688000000     4.194000000    -3.453000000
H    -4.023000000     4.354000000    -2.757000000
O    -4.783000000     1.308000000    -2.080000000
H    -5.562000000     1.786000000    -2.366000000
H    -4.293000000     1.145000000    -2.886000000
O     1.047000000     2.728000000    -1.693000000
H     0.673000000     2.039000000    -1.145000000
H     1.719000000     3.133000000    -1.144000000
O     1.273000000    -7.586000000    -1.014000000
H     0.447000000    -8.008000000    -0.776000000
H     1.013000000    -6.745000000    -1.389000000
O    -6.439000000    -0.685000000    -1.694000000
H    -5.655000000    -0.191000000    -1.934000000
H    -7.115000000    -0.367000000    -2.292000000
O     6.845000000    -5.720000000    -1.084000000
H     6.570000000    -6.340000000    -0.409000000
H     6.553000000    -4.868000000    -0.761000000
O    -1.778000000     5.930000000     3.715000000
H    -2.421000000     6.565000000     4.031000000
H    -1.750000000     6.068000000     2.768000000
O     6.399000000    -2.296000000    -2.836000000
H     6.173000000    -3.187000000    -3.104000000
H     5.806000000    -2.108000000    -2.108000000
O    -0.828000000     3.744000000    -3.318000000
H    -0.574000000     4.597000000    -3.671000000
H    -0.196000000     3.576000000    -2.620000000
O     1.065000000     6.086000000    -1.639000000
H     1.961000000     6.355000000    -1.437000000
H     0.908000000     6.420000000    -2.522000000
O     0.223000000     4.098000000     1.836000000
H    -0.198000000     4.800000000     1.339000000
H     1.108000000     4.046000000     1.474000000
O    -2.093000000     3.125000000     3.475000000
H    -2.612000000     3.929000000     3.453000000
H    -1.239000000     3.381000000     3.128000000
O     2.879000000     4.087000000     0.644000000
H     3.309000000     4.018000000     1.497000000
H     3.082000000     4.973000000     0.344000000
O     3.423000000    -1.185000000     5.327000000
H     3.073000000    -1.967000000     4.899000000
H     3.680000000    -0.612000000     4.606000000
