158
-3035.60253
C    -0.933000000    -0.743000000    -0.805000000
H    -1.525000000    -1.458000000    -1.371000000
C    -0.484000000    -1.116000000     0.453000000
H    -0.788000000    -2.065000000     0.889000000
C     0.234000000    -0.195000000     1.178000000
H     0.583000000    -0.396000000     2.170000000
C     0.729000000     0.955000000     0.567000000
H     1.403000000     1.525000000     1.201000000
C     0.470000000     1.166000000    -0.763000000
H     0.936000000     2.044000000    -1.203000000
C    -0.429000000     0.377000000    -1.516000000
C    -0.680000000     0.604000000    -2.982000000
O    -1.281000000    -0.213000000    -3.690000000
O    -0.291000000     1.645000000    -3.452000000
O    -2.995000000    -4.552000000    -0.626000000
H    -3.531000000    -4.217000000    -1.344000000
H    -2.357000000    -5.126000000    -1.050000000
O    -0.173000000    -3.115000000     4.611000000
H    -0.604000000    -3.880000000     4.990000000
H    -0.793000000    -2.399000000     4.746000000
O     2.128000000    -2.242000000    -1.103000000
H     1.490000000    -1.575000000    -0.851000000
H     2.510000000    -2.534000000    -0.276000000
O    -5.121000000    -0.087000000     2.418000000
H    -4.980000000     0.702000000     2.941000000
H    -4.421000000    -0.682000000     2.687000000
O     0.726000000    -1.082000000    -8.623000000
H     0.730000000    -1.399000000    -7.720000000
H     0.890000000    -0.142000000    -8.548000000
O     0.064000000     1.624000000    -8.029000000
H    -0.678000000     1.333000000    -7.499000000
H     0.434000000     2.359000000    -7.540000000
O     1.128000000    -6.986000000     0.648000000
H     0.185000000    -6.854000000     0.545000000
H     1.473000000    -6.111000000     0.828000000
O     3.969000000     5.125000000     1.111000000
H     4.694000000     4.512000000     0.995000000
H     3.975000000     5.657000000     0.315000000
O     5.771000000    -4.096000000     2.285000000
H     5.127000000    -3.394000000     2.376000000
H     5.496000000    -4.757000000     2.920000000
O     1.678000000     4.109000000     2.651000000
H     1.020000000     4.454000000     2.048000000
H     2.480000000     4.581000000     2.427000000
O     2.202000000    -3.510000000     5.935000000
H     1.452000000    -3.165000000     5.452000000
H     2.099000000    -4.460000000     5.892000000
O     0.801000000    -1.023000000    -5.736000000
H     0.141000000    -1.669000000    -5.482000000
H     0.499000000    -0.205000000    -5.339000000
O    -4.862000000     1.519000000    -5.892000000
H    -3.998000000     1.910000000    -5.762000000
H    -5.471000000     2.152000000    -5.510000000
O    -2.494000000     1.691000000     2.379000000
H    -1.673000000     1.212000000     2.269000000
H    -2.247000000     2.480000000     2.863000000
O    -2.653000000    -0.804000000    -7.188000000
H    -2.405000000    -1.726000000    -7.129000000
H    -2.806000000    -0.656000000    -8.122000000
O    -5.288000000    -4.125000000     1.030000000
H    -6.032000000    -4.655000000     0.747000000
H    -4.519000000    -4.613000000     0.735000000
O     0.820000000    -4.446000000    -2.835000000
H     1.176000000    -3.700000000    -2.352000000
H    -0.035000000    -4.146000000    -3.142000000
O     4.498000000     2.372000000     0.542000000
H     4.226000000     2.712000000    -0.311000000
H     3.691000000     2.047000000     0.940000000
O     2.096000000     1.160000000     5.909000000
H     1.660000000     1.974000000     5.656000000
H     1.915000000     1.073000000     6.845000000
O     6.102000000     0.207000000     1.117000000
H     5.867000000    -0.310000000     0.346000000
H     5.416000000     0.872000000     1.178000000
O    -1.277000000    -2.828000000    -3.790000000
H    -1.260000000    -1.875000000    -3.697000000
H    -2.112000000    -3.012000000    -4.220000000
O     4.178000000    -1.848000000     2.669000000
H     4.402000000    -1.099000000     2.117000000
H     4.090000000    -1.480000000     3.548000000
O    -2.671000000    -4.552000000     1.944000000
H    -2.681000000    -4.628000000     0.990000000
H    -1.772000000    -4.766000000     2.193000000
O     6.141000000    -1.440000000     5.675000000
H     6.657000000    -1.479000000     4.869000000
H     5.241000000    -1.304000000     5.377000000
O    -3.897000000    -2.522000000     3.563000000
H    -4.684000000    -3.025000000     3.775000000
H    -3.456000000    -3.040000000     2.890000000
O    -1.816000000     4.384000000    -6.024000000
H    -1.955000000     3.439000000    -5.957000000
H    -1.720000000     4.546000000    -6.962000000
O     3.795000000    -1.284000000    -3.403000000
H     3.321000000    -1.334000000    -4.233000000
H     3.120000000    -1.096000000    -2.751000000
O     4.501000000     1.814000000    -5.216000000
H     3.616000000     2.065000000    -4.950000000
H     4.431000000     0.884000000    -5.431000000
O    -3.343000000     2.468000000    -0.102000000
H    -3.078000000     3.373000000     0.063000000
H    -3.060000000     1.989000000     0.677000000
O    -5.666000000    -1.439000000    -0.006000000
H    -5.548000000    -2.316000000     0.359000000
H    -5.309000000    -0.852000000     0.661000000
O     3.733000000    -0.874000000     5.065000000
H     3.061000000    -0.230000000     4.841000000
H     3.244000000    -1.619000000     5.415000000
O     2.048000000     2.587000000    -4.236000000
H     1.819000000     3.469000000    -4.530000000
H     1.209000000     2.179000000    -4.024000000
O    -1.092000000    -6.192000000    -1.881000000
H    -0.568000000    -6.983000000    -2.006000000
H    -0.484000000    -5.472000000    -2.054000000
O    -3.775000000     3.068000000    -3.082000000
H    -4.254000000     2.824000000    -2.289000000
H    -3.000000000     2.506000000    -3.076000000
O     3.431000000     2.837000000    -1.826000000
H     3.704000000     3.725000000    -2.057000000
H     2.995000000     2.508000000    -2.612000000
O    -4.424000000     1.970000000     4.607000000
H    -4.509000000     2.890000000     4.356000000
H    -3.543000000     1.725000000     4.325000000
O    -1.923000000     1.677000000    -5.753000000
H    -2.308000000     0.816000000    -5.592000000
H    -1.287000000     1.791000000    -5.047000000
O     0.220000000     4.253000000    -2.181000000
H     0.128000000     4.836000000    -2.934000000
H     0.164000000     3.372000000    -2.552000000
O    -5.255000000    -0.988000000    -4.161000000
H    -5.491000000    -0.554000000    -3.341000000
H    -4.929000000    -0.282000000    -4.719000000
O    -0.328000000     6.088000000    -4.675000000
H    -0.714000000     6.934000000    -4.903000000
H    -0.804000000     5.455000000    -5.211000000
O     1.054000000     3.378000000     5.164000000
H     1.133000000     3.443000000     4.212000000
H     0.251000000     3.855000000     5.371000000
O    -3.736000000    -3.320000000    -5.273000000
H    -4.107000000    -2.439000000    -5.218000000
H    -3.081000000    -3.262000000    -5.968000000
O    -0.916000000    -0.375000000     7.789000000
H    -0.993000000     0.575000000     7.711000000
H    -1.049000000    -0.700000000     6.898000000
O     2.061000000     6.794000000    -0.580000000
H     2.267000000     7.619000000    -0.139000000
H     1.451000000     6.353000000     0.011000000
O    -1.779000000    -3.359000000    -7.087000000
H    -2.112000000    -3.434000000    -7.981000000
H    -0.882000000    -3.689000000    -7.137000000
O     0.013000000     4.842000000     0.649000000
H    -0.885000000     5.164000000     0.726000000
H     0.136000000     4.697000000    -0.289000000
O     0.424000000    -4.272000000     2.137000000
H     0.479000000    -3.707000000     2.907000000
H     1.333000000    -4.492000000     1.935000000
O    -2.334000000    -1.502000000     5.282000000
H    -2.942000000    -1.826000000     4.618000000
H    -2.768000000    -1.686000000     6.115000000
