158
-3047.89360
C     0.205000000    -1.020000000    -1.067000000
H     0.205000000    -1.775000000    -1.848000000
C    -0.862000000    -0.958000000    -0.191000000
H    -1.640000000    -1.709000000    -0.301000000
C    -1.020000000     0.055000000     0.776000000
H    -1.928000000     0.109000000     1.374000000
C    -0.057000000     0.995000000     0.799000000
H    -0.214000000     1.780000000     1.535000000
C     1.071000000     1.044000000    -0.049000000
H     1.907000000     1.739000000    -0.035000000
C     1.244000000    -0.022000000    -0.950000000
C     2.564000000    -0.061000000    -1.777000000
O     3.063000000    -1.061000000    -2.198000000
O     3.153000000     0.957000000    -2.033000000
O     0.695000000    -4.190000000    -1.738000000
H    -0.087000000    -4.225000000    -1.187000000
H     1.411000000    -4.020000000    -1.125000000
O    -5.481000000     0.227000000    -0.803000000
H    -5.409000000     0.123000000    -1.751000000
H    -6.377000000    -0.041000000    -0.600000000
O     4.233000000    -0.640000000    -6.578000000
H     3.523000000    -0.829000000    -5.964000000
H     4.965000000    -0.373000000    -6.023000000
O     2.749000000     5.481000000    -0.784000000
H     2.970000000     5.074000000     0.053000000
H     3.584000000     5.803000000    -1.122000000
O    -4.942000000    -0.198000000     4.840000000
H    -5.854000000     0.093000000     4.860000000
H    -4.676000000    -0.087000000     3.927000000
O    -3.111000000     2.205000000    -0.892000000
H    -2.926000000     1.268000000    -0.965000000
H    -2.995000000     2.541000000    -1.781000000
O     0.100000000    -2.888000000     3.698000000
H     0.569000000    -2.798000000     4.528000000
H     0.342000000    -2.107000000     3.201000000
O     6.693000000     2.464000000    -1.151000000
H     7.436000000     3.064000000    -1.077000000
H     6.528000000     2.401000000    -2.092000000
O     0.935000000     2.308000000     5.333000000
H     1.425000000     1.553000000     5.006000000
H     1.570000000     2.796000000     5.858000000
O     5.048000000     0.409000000    -4.074000000
H     5.249000000     1.339000000    -4.185000000
H     4.251000000     0.398000000    -3.544000000
O    -5.689000000    -2.817000000     3.656000000
H    -5.068000000    -2.572000000     2.970000000
H    -5.575000000    -2.148000000     4.331000000
O    -5.154000000     4.004000000     4.618000000
H    -5.833000000     4.160000000     3.960000000
H    -4.506000000     3.462000000     4.169000000
O    -3.472000000     0.421000000     7.153000000
H    -2.614000000     0.436000000     6.729000000
H    -4.091000000     0.287000000     6.436000000
O     0.480000000     4.087000000     3.255000000
H    -0.225000000     4.728000000     3.349000000
H     0.328000000     3.460000000     3.962000000
O    -1.912000000    -4.092000000    -0.435000000
H    -1.468000000    -4.131000000     0.411000000
H    -2.772000000    -3.722000000    -0.237000000
O     0.198000000    -4.325000000    -5.126000000
H     0.460000000    -4.098000000    -4.233000000
H     0.799000000    -5.025000000    -5.381000000
O     2.333000000     0.121000000     4.329000000
H     3.013000000     0.393000000     3.712000000
H     1.610000000    -0.172000000     3.774000000
O    -3.835000000    -2.342000000     0.810000000
H    -4.721000000    -2.627000000     0.585000000
H    -3.920000000    -1.402000000     0.968000000
O     4.171000000    -0.937000000     1.771000000
H     4.892000000    -0.902000000     2.399000000
H     4.343000000    -0.213000000     1.169000000
O     5.878000000    -1.873000000    -2.661000000
H     5.365000000    -1.258000000    -3.185000000
H     5.341000000    -2.033000000    -1.886000000
O     2.774000000    -4.615000000    -3.394000000
H     3.244000000    -3.931000000    -2.917000000
H     1.905000000    -4.633000000    -2.994000000
O     5.862000000     3.142000000    -3.914000000
H     5.941000000     3.886000000    -4.511000000
H     5.081000000     3.333000000    -3.395000000
O     3.309000000    -3.225000000    -0.833000000
H     3.279000000    -2.357000000    -1.235000000
H     3.099000000    -3.070000000     0.087000000
O    -2.208000000     3.924000000     0.854000000
H    -2.416000000     3.298000000     0.161000000
H    -1.394000000     4.337000000     0.567000000
O    -1.516000000     1.399000000     4.869000000
H    -1.630000000     0.545000000     5.286000000
H    -0.607000000     1.636000000     5.053000000
O     3.490000000     2.022000000     2.445000000
H     3.914000000     2.004000000     1.587000000
H     2.944000000     2.807000000     2.427000000
O    -2.904000000    -4.030000000     5.591000000
H    -2.908000000    -3.593000000     4.740000000
H    -2.000000000    -3.949000000     5.897000000
O     8.262000000     0.366000000    -3.448000000
H     7.433000000     0.569000000    -3.015000000
H     8.020000000    -0.219000000    -4.165000000
O     2.164000000    -1.048000000    -4.745000000
H     2.528000000    -1.311000000    -3.900000000
H     1.892000000    -0.140000000    -4.617000000
O     1.552000000    -1.132000000     2.112000000
H     1.017000000    -0.578000000     1.544000000
H     2.432000000    -1.080000000     1.739000000
O    -5.720000000    -2.855000000    -1.869000000
H    -6.241000000    -2.894000000    -1.067000000
H    -4.893000000    -3.279000000    -1.639000000
O    -4.545000000     0.241000000     1.831000000
H    -4.235000000     1.136000000     1.970000000
H    -4.976000000     0.266000000     0.977000000
O     4.672000000     1.218000000     0.170000000
H     4.191000000     1.023000000    -0.635000000
H     5.492000000     1.610000000    -0.130000000
O     1.270000000     1.569000000    -5.036000000
H     1.726000000     2.325000000    -4.667000000
H     0.429000000     1.917000000    -5.331000000
O    -3.394000000     2.453000000     3.052000000
H    -2.836000000     2.138000000     3.764000000
H    -2.832000000     3.046000000     2.553000000
O     2.116000000     4.418000000    -5.157000000
H     1.578000000     5.090000000    -4.738000000
H     2.706000000     4.118000000    -4.465000000
O     6.173000000    -3.357000000    -5.796000000
H     6.807000000    -4.072000000    -5.747000000
H     5.854000000    -3.258000000    -4.900000000
O     3.327000000     3.454000000    -2.943000000
H     3.182000000     3.995000000    -2.166000000
H     3.175000000     2.558000000    -2.643000000
O    -3.552000000    -5.030000000    -2.691000000
H    -2.930000000    -4.769000000    -2.012000000
H    -3.007000000    -5.410000000    -3.380000000
O    -2.721000000    -3.466000000     2.880000000
H    -3.203000000    -3.176000000     2.106000000
H    -1.882000000    -3.008000000     2.826000000
O    -0.088000000     5.249000000    -0.219000000
H     0.111000000     6.090000000     0.192000000
H     0.667000000     5.071000000    -0.779000000
O    -0.653000000    -0.527000000     6.700000000
H     0.240000000    -0.427000000     7.027000000
H    -1.129000000    -0.936000000     7.423000000
O    -2.574000000    -0.930000000    -3.480000000
H    -1.772000000    -1.070000000    -2.975000000
H    -2.271000000    -0.584000000    -4.319000000
O     2.864000000     4.825000000     1.928000000
H     1.957000000     4.579000000     2.109000000
H     2.859000000     5.782000000     1.939000000
O    -5.753000000     3.457000000     0.188000000
H    -4.921000000     2.986000000     0.229000000
H    -6.295000000     2.935000000    -0.404000000
O    -2.170000000     5.224000000     3.545000000
H    -2.015000000     5.076000000     2.612000000
H    -3.113000000     5.372000000     3.611000000
O     0.456000000    -1.937000000    -6.896000000
H     0.584000000    -2.881000000    -6.806000000
H     1.031000000    -1.553000000    -6.234000000
O     0.319000000    -4.450000000     1.216000000
H     0.077000000    -4.099000000     2.073000000
H     1.177000000    -4.851000000     1.355000000
