158
-3018.27298
C    -1.238000000    -0.568000000    -0.632000000
H    -2.189000000    -0.950000000    -0.994000000
C    -1.008000000    -0.477000000     0.733000000
H    -1.695000000    -0.831000000     1.497000000
C     0.226000000    -0.060000000     1.216000000
H     0.462000000    -0.095000000     2.290000000
C     1.195000000     0.384000000     0.337000000
H     2.141000000     0.767000000     0.711000000
C     0.890000000     0.412000000    -1.019000000
H     1.586000000     0.684000000    -1.808000000
C    -0.277000000    -0.155000000    -1.492000000
C    -0.467000000    -0.044000000    -2.979000000
O     0.434000000     0.148000000    -3.735000000
O    -1.607000000    -0.203000000    -3.402000000
O    -2.506000000    -2.694000000     2.949000000
H    -2.870000000    -3.087000000     2.155000000
H    -3.252000000    -2.261000000     3.365000000
O    -3.816000000    -2.038000000    -6.527000000
H    -4.468000000    -1.337000000    -6.533000000
H    -3.174000000    -1.773000000    -7.185000000
O    -0.593000000     0.561000000     7.055000000
H    -0.028000000     0.901000000     7.748000000
H    -0.279000000     0.988000000     6.258000000
O    -2.790000000    -5.841000000     2.768000000
H    -2.500000000    -5.323000000     3.519000000
H    -3.028000000    -5.190000000     2.106000000
O     4.333000000     1.816000000    -4.064000000
H     4.205000000     1.067000000    -3.482000000
H     3.481000000     2.251000000    -4.087000000
O    -3.501000000     4.490000000     2.115000000
H    -4.216000000     3.892000000     1.898000000
H    -2.710000000     3.958000000     2.032000000
O    -2.648000000    -2.696000000    -4.035000000
H    -3.011000000    -2.441000000    -4.883000000
H    -2.089000000    -1.961000000    -3.782000000
O    -1.232000000     3.102000000     2.656000000
H    -0.848000000     2.368000000     3.135000000
H    -0.491000000     3.513000000     2.211000000
O    -3.602000000     0.887000000     6.056000000
H    -3.601000000     1.458000000     5.287000000
H    -2.676000000     0.724000000     6.235000000
O    -2.823000000    -4.675000000    -1.226000000
H    -3.649000000    -4.501000000    -0.774000000
H    -2.787000000    -4.017000000    -1.920000000
O    -5.905000000     2.477000000    -4.130000000
H    -4.951000000     2.419000000    -4.096000000
H    -6.079000000     3.230000000    -4.695000000
O     1.554000000     2.448000000    -3.597000000
H     1.022000000     3.091000000    -3.129000000
H     0.995000000     1.673000000    -3.656000000
O    -4.100000000    -3.998000000     1.219000000
H    -4.659000000    -4.610000000     1.697000000
H    -4.711000000    -3.438000000     0.741000000
O     0.306000000     1.563000000    -8.814000000
H     1.036000000     1.817000000    -9.378000000
H     0.697000000     1.467000000    -7.945000000
O     0.096000000     4.034000000    -1.834000000
H     0.228000000     3.861000000    -0.902000000
H    -0.851000000     3.973000000    -1.957000000
O    -0.725000000    -3.790000000     0.513000000
H    -1.383000000    -4.103000000    -0.107000000
H    -1.230000000    -3.370000000     1.209000000
O    -1.432000000    -4.425000000     4.844000000
H    -0.478000000    -4.357000000     4.895000000
H    -1.710000000    -3.600000000     4.447000000
O     1.591000000     1.509000000    -6.459000000
H     2.160000000     2.261000000    -6.622000000
H     1.381000000     1.565000000    -5.527000000
O     4.122000000    -2.027000000    -6.211000000
H     3.734000000    -1.844000000    -5.355000000
H     4.056000000    -1.199000000    -6.686000000
O    -5.515000000    -2.767000000    -1.105000000
H    -6.234000000    -3.153000000    -1.607000000
H    -5.040000000    -2.232000000    -1.741000000
O    -4.235000000     0.307000000     2.107000000
H    -3.833000000     1.174000000     2.056000000
H    -4.726000000     0.221000000     1.290000000
O     2.034000000    -3.411000000    -2.607000000
H     1.736000000    -4.060000000    -1.969000000
H     2.942000000    -3.235000000    -2.363000000
O    -1.201000000     0.276000000    -6.099000000
H    -1.413000000    -0.148000000    -5.267000000
H    -0.284000000     0.533000000    -6.010000000
O     6.367000000     3.269000000     1.718000000
H     6.998000000     3.525000000     1.046000000
H     5.568000000     3.746000000     1.491000000
O     4.867000000    -1.663000000     4.780000000
H     5.608000000    -1.335000000     5.289000000
H     4.839000000    -1.099000000     4.007000000
O    -1.323000000    -5.260000000    -4.515000000
H    -1.527000000    -4.419000000    -4.107000000
H    -2.112000000    -5.786000000    -4.386000000
O     0.668000000     1.455000000     4.501000000
H     1.302000000     1.886000000     3.928000000
H     0.862000000     0.522000000     4.413000000
O    -2.997000000     2.106000000    -7.300000000
H    -2.379000000     1.412000000    -7.071000000
H    -3.226000000     2.509000000    -6.462000000
O     5.390000000     0.772000000     0.587000000
H     5.914000000     1.521000000     0.872000000
H     5.318000000     0.221000000     1.366000000
O     2.126000000    -1.522000000    -4.500000000
H     1.508000000    -0.838000000    -4.242000000
H     2.055000000    -2.182000000    -3.810000000
O     3.903000000     4.229000000     0.806000000
H     3.579000000     5.105000000     1.017000000
H     4.048000000     4.249000000    -0.140000000
O    -6.025000000    -0.093000000     0.028000000
H    -6.457000000    -0.816000000    -0.427000000
H    -6.149000000     0.661000000    -0.549000000
O     0.688000000     3.244000000     0.912000000
H     1.444000000     3.098000000     1.481000000
H     0.338000000     2.368000000     0.750000000
O     3.201000000    -2.953000000     6.556000000
H     2.996000000    -2.340000000     7.262000000
H     3.725000000    -2.441000000     5.939000000
O     2.021000000    -1.135000000     4.093000000
H     2.957000000    -1.055000000     3.908000000
H     1.948000000    -1.929000000     4.623000000
O     4.089000000    -0.074000000    -1.892000000
H     3.709000000    -0.949000000    -1.967000000
H     4.532000000    -0.076000000    -1.044000000
O     1.262000000    -3.120000000    -6.923000000
H     1.755000000    -2.498000000    -6.388000000
H     0.345000000    -2.881000000    -6.786000000
O     3.959000000    -4.143000000     1.305000000
H     3.325000000    -3.443000000     1.460000000
H     4.810000000    -3.707000000     1.342000000
O     3.409000000     0.089000000    -8.005000000
H     2.907000000     0.616000000    -7.383000000
H     3.212000000     0.474000000    -8.859000000
O     1.791000000    -2.527000000     1.719000000
H     1.468000000    -1.873000000     2.339000000
H     1.213000000    -2.445000000     0.961000000
O    -4.411000000    -1.353000000     4.342000000
H    -4.415000000    -0.691000000     3.651000000
H    -4.256000000    -0.858000000     5.147000000
O     1.697000000     6.077000000    -2.735000000
H     1.318000000     5.290000000    -2.343000000
H     0.989000000     6.448000000    -3.262000000
O    -2.244000000    -1.534000000     7.777000000
H    -1.787000000    -0.799000000     7.370000000
H    -1.918000000    -1.550000000     8.677000000
O    -3.067000000     3.200000000     4.772000000
H    -3.187000000     4.126000000     4.981000000
H    -2.711000000     3.199000000     3.883000000
O     2.849000000     2.768000000     2.846000000
H     3.003000000     3.420000000     3.530000000
H     3.150000000     3.190000000     2.041000000
O    -4.179000000    -0.454000000    -2.539000000
H    -3.245000000    -0.277000000    -2.644000000
H    -4.475000000    -0.709000000    -3.413000000
O    -2.897000000     2.454000000    -4.316000000
H    -2.871000000     2.906000000    -3.472000000
H    -2.440000000     1.628000000    -4.159000000
O     4.345000000     0.381000000     2.961000000
H     3.638000000     0.915000000     2.599000000
H     4.828000000     0.978000000     3.532000000
