158
-3042.43554
C    -0.767000000    -0.626000000    -1.104000000
H    -1.287000000    -1.202000000    -1.865000000
C    -0.899000000    -0.993000000     0.213000000
H    -1.602000000    -1.772000000     0.497000000
C    -0.075000000    -0.339000000     1.208000000
H    -0.050000000    -0.682000000     2.262000000
C     0.687000000     0.723000000     0.794000000
H     1.327000000     1.197000000     1.533000000
C     0.719000000     1.168000000    -0.550000000
H     1.334000000     2.037000000    -0.768000000
C    -0.005000000     0.468000000    -1.500000000
C     0.055000000     0.852000000    -2.925000000
O    -0.156000000    -0.012000000    -3.782000000
O     0.326000000     1.954000000    -3.305000000
O    -0.767000000    -4.283000000    -1.879000000
H    -0.806000000    -3.592000000    -2.540000000
H     0.124000000    -4.233000000    -1.533000000
O     0.720000000    -2.919000000     4.751000000
H     0.036000000    -2.884000000     5.419000000
H     0.441000000    -2.287000000     4.089000000
O     2.522000000    -1.547000000    -0.873000000
H     1.578000000    -1.425000000    -0.770000000
H     2.911000000    -0.939000000    -0.245000000
O     2.082000000    -1.893000000    -7.977000000
H     3.016000000    -1.984000000    -8.168000000
H     2.001000000    -1.020000000    -7.592000000
O     0.190000000     3.095000000    -7.647000000
H     0.489000000     3.286000000    -6.758000000
H     0.891000000     2.564000000    -8.026000000
O    -2.509000000     2.405000000    -7.000000000
H    -1.634000000     2.527000000    -7.370000000
H    -3.005000000     1.974000000    -7.696000000
O    -2.979000000    -6.425000000     2.993000000
H    -2.283000000    -5.858000000     2.661000000
H    -3.775000000    -6.098000000     2.573000000
O     1.958000000     6.769000000     0.708000000
H     2.342000000     6.434000000    -0.102000000
H     1.050000000     6.968000000     0.478000000
O     2.104000000     4.042000000     1.591000000
H     1.233000000     4.085000000     1.196000000
H     2.440000000     4.936000000     1.528000000
O     3.178000000    -3.121000000     6.113000000
H     2.256000000    -3.188000000     5.865000000
H     3.539000000    -3.988000000     5.929000000
O     1.824000000    -0.012000000    -5.839000000
H     2.510000000     0.122000000    -5.185000000
H     1.015000000    -0.069000000    -5.330000000
O    -1.622000000     2.072000000     1.895000000
H    -0.940000000     2.736000000     1.795000000
H    -1.157000000     1.239000000     1.826000000
O    -6.083000000     0.480000000    -0.149000000
H    -6.608000000     1.281000000    -0.152000000
H    -5.180000000     0.786000000    -0.235000000
O    -3.692000000    -3.642000000     2.018000000
H    -4.268000000    -4.312000000     1.651000000
H    -2.844000000    -3.801000000     1.604000000
O     6.492000000     2.667000000    -2.083000000
H     5.584000000     2.431000000    -1.892000000
H     6.894000000     2.791000000    -1.223000000
O     3.969000000     5.228000000    -1.308000000
H     4.882000000     5.465000000    -1.144000000
H     3.633000000     5.936000000    -1.857000000
O     1.389000000     0.520000000     7.810000000
H     1.374000000     0.969000000     8.655000000
H     0.515000000     0.661000000     7.447000000
O    -1.000000000    -3.640000000    -6.370000000
H    -1.051000000    -2.938000000    -7.018000000
H    -1.824000000    -4.118000000    -6.469000000
O     2.669000000    -3.163000000    -3.270000000
H     2.878000000    -2.476000000    -2.637000000
H     1.754000000    -3.004000000    -3.503000000
O     4.205000000     2.891000000     0.363000000
H     4.389000000     3.606000000    -0.246000000
H     3.342000000     3.097000000     0.721000000
O     1.977000000     0.357000000     4.870000000
H     1.759000000     1.259000000     4.635000000
H     1.545000000     0.219000000     5.713000000
O     4.315000000     0.236000000     0.588000000
H     5.135000000    -0.042000000     0.180000000
H     4.342000000     1.193000000     0.550000000
O    -0.044000000    -2.473000000    -3.787000000
H    -0.057000000    -1.517000000    -3.817000000
H    -0.458000000    -2.744000000    -4.607000000
O     3.917000000    -2.424000000     2.159000000
H     3.953000000    -1.568000000     1.732000000
H     4.258000000    -2.268000000     3.040000000
O    -1.240000000    -5.099000000     1.190000000
H    -1.286000000    -5.264000000     0.248000000
H    -0.445000000    -4.577000000     1.302000000
O    -0.242000000    -5.791000000    -4.522000000
H    -0.725000000    -5.600000000    -5.326000000
H     0.016000000    -4.932000000    -4.187000000
O    -4.490000000    -2.925000000     4.518000000
H    -4.821000000    -3.702000000     4.970000000
H    -4.136000000    -3.260000000     3.695000000
O     3.389000000     0.404000000    -3.312000000
H     2.990000000     1.271000000    -3.227000000
H     3.361000000     0.040000000    -2.427000000
O     4.695000000     3.494000000    -5.781000000
H     3.777000000     3.713000000    -5.626000000
H     4.669000000     2.642000000    -6.217000000
O    -3.709000000     2.227000000     0.016000000
H    -3.041000000     2.163000000     0.699000000
H    -3.214000000     2.371000000    -0.790000000
O    -4.393000000    -0.555000000     2.177000000
H    -4.474000000    -0.427000000     1.232000000
H    -3.997000000    -1.422000000     2.268000000
O     4.370000000    -1.142000000     4.728000000
H     3.636000000    -0.530000000     4.770000000
H     4.043000000    -1.937000000     5.149000000
O     0.664000000     3.997000000    -5.046000000
H     0.467000000     4.855000000    -4.670000000
H     0.515000000     3.381000000    -4.329000000
O    -3.727000000    -0.003000000    -2.856000000
H    -3.240000000    -0.184000000    -3.660000000
H    -3.348000000     0.811000000    -2.525000000
O     2.838000000     2.820000000    -2.629000000
H     3.013000000     3.701000000    -2.296000000
H     1.895000000     2.809000000    -2.792000000
O    -2.778000000     1.425000000     4.434000000
H    -3.342000000     2.146000000     4.713000000
H    -2.430000000     1.706000000     3.588000000
O    -2.513000000     0.146000000    -5.478000000
H    -2.686000000     0.792000000    -6.162000000
H    -1.659000000     0.394000000    -5.125000000
O    -2.679000000     2.478000000    -2.334000000
H    -2.951000000     3.089000000    -3.019000000
H    -1.729000000     2.582000000    -2.284000000
O    -0.595000000     4.248000000     4.661000000
H    -1.484000000     4.223000000     5.016000000
H    -0.054000000     4.552000000     5.390000000
O    -6.132000000    -1.257000000    -2.853000000
H    -5.253000000    -0.878000000    -2.829000000
H    -6.591000000    -0.843000000    -2.123000000
O     1.612000000     2.783000000     3.951000000
H     2.022000000     3.494000000     3.459000000
H     0.718000000     3.086000000     4.109000000
O    -3.921000000    -2.388000000    -5.938000000
H    -3.334000000    -1.713000000    -5.597000000
H    -4.412000000    -1.949000000    -6.632000000
O    -0.876000000     0.443000000     6.176000000
H    -1.381000000     1.042000000     5.626000000
H    -1.110000000    -0.429000000     5.858000000
O     1.360000000     6.117000000    -2.085000000
H     0.446000000     5.839000000    -2.039000000
H     1.491000000     6.360000000    -3.001000000
O    -1.006000000    -1.740000000    -8.244000000
H    -1.193000000    -1.430000000    -9.129000000
H    -0.142000000    -1.382000000    -8.041000000
O    -0.292000000     4.678000000     0.490000000
H    -1.177000000     4.802000000     0.832000000
H    -0.309000000     5.086000000    -0.375000000
O     1.352000000    -4.067000000     1.751000000
H     1.713000000    -4.479000000     2.536000000
H     2.014000000    -3.425000000     1.493000000
O    -2.167000000    -1.462000000     4.332000000
H    -2.740000000    -2.098000000     4.761000000
H    -2.665000000    -0.644000000     4.345000000
