158
-3048.00539
C    -0.236000000    -0.215000000    -1.396000000
H    -0.586000000    -0.472000000    -2.393000000
C    -1.261000000    -0.152000000    -0.483000000
H    -2.277000000    -0.428000000    -0.753000000
C    -0.926000000     0.055000000     0.848000000
H    -1.737000000     0.219000000     1.569000000
C     0.407000000     0.260000000     1.178000000
H     0.733000000     0.528000000     2.180000000
C     1.433000000     0.239000000     0.209000000
H     2.463000000     0.485000000     0.452000000
C     1.146000000     0.017000000    -1.114000000
C     2.191000000     0.030000000    -2.229000000
O     1.774000000    -0.147000000    -3.373000000
O     3.371000000     0.046000000    -1.975000000
O    -5.429000000    -0.125000000     0.359000000
H    -6.316000000    -0.191000000     0.714000000
H    -5.393000000     0.747000000    -0.034000000
O    -1.818000000     3.365000000    -4.232000000
H    -1.205000000     2.693000000    -4.529000000
H    -2.353000000     3.559000000    -5.002000000
O     1.918000000     3.435000000    -5.040000000
H     2.652000000     3.650000000    -5.617000000
H     2.328000000     3.199000000    -4.209000000
O     2.455000000    -0.441000000     4.050000000
H     2.414000000    -1.389000000     4.176000000
H     1.543000000    -0.153000000     4.097000000
O    -5.190000000     2.739000000    -0.302000000
H    -5.828000000     3.292000000    -0.752000000
H    -4.588000000     2.458000000    -0.991000000
O    -3.582000000     2.193000000     2.844000000
H    -2.657000000     2.436000000     2.807000000
H    -4.034000000     2.901000000     2.385000000
O     7.364000000    -0.658000000    -3.584000000
H     6.782000000    -0.575000000    -4.339000000
H     7.070000000    -1.453000000    -3.141000000
O    -4.681000000    -4.126000000     3.257000000
H    -4.923000000    -4.147000000     2.331000000
H    -3.833000000    -4.569000000     3.293000000
O    -3.283000000     3.172000000     5.612000000
H    -3.916000000     2.635000000     5.135000000
H    -3.212000000     2.753000000     6.470000000
O     0.972000000    -3.426000000     1.202000000
H     0.619000000    -2.636000000     1.611000000
H     0.200000000    -3.950000000     0.987000000
O     3.304000000     0.987000000    -6.656000000
H     2.922000000     1.673000000    -7.205000000
H     2.665000000     0.274000000    -6.685000000
O     5.600000000    -1.172000000    -6.303000000
H     5.208000000    -0.664000000    -7.013000000
H     4.857000000    -1.451000000    -5.769000000
O    -4.730000000    -3.983000000     0.389000000
H    -5.352000000    -3.727000000    -0.292000000
H    -3.892000000    -4.058000000    -0.068000000
O     2.672000000     3.537000000    -1.305000000
H     1.836000000     3.874000000    -0.984000000
H     3.332000000     4.018000000    -0.805000000
O     3.711000000    -3.552000000     0.721000000
H     3.912000000    -3.541000000     1.657000000
H     2.772000000    -3.371000000     0.676000000
O     5.499000000    -2.371000000     2.517000000
H     5.021000000    -1.584000000     2.778000000
H     6.221000000    -2.046000000     1.980000000
O    -6.298000000    -2.978000000    -1.580000000
H    -6.235000000    -2.383000000    -2.327000000
H    -7.203000000    -2.890000000    -1.278000000
O    -5.871000000     3.568000000     2.304000000
H    -6.105000000     2.725000000     2.693000000
H    -5.678000000     3.364000000     1.389000000
O    -0.563000000     0.131000000     4.365000000
H    -0.855000000    -0.126000000     3.491000000
H    -0.601000000    -0.676000000     4.878000000
O    -0.821000000    -4.153000000     4.526000000
H    -0.970000000    -4.254000000     3.586000000
H     0.079000000    -3.833000000     4.593000000
O    -6.283000000     0.213000000    -2.424000000
H    -5.780000000    -0.281000000    -1.775000000
H    -5.764000000     1.002000000    -2.578000000
O    -0.906000000     3.308000000     2.801000000
H    -0.439000000     2.704000000     3.378000000
H    -1.246000000     3.984000000     3.387000000
O     3.367000000    -1.659000000    -4.769000000
H     3.625000000    -2.249000000    -4.061000000
H     2.752000000    -1.049000000    -4.362000000
O     1.018000000    -4.359000000    -5.221000000
H     0.263000000    -3.895000000    -5.582000000
H     1.146000000    -3.974000000    -4.355000000
O     0.645000000     2.543000000     5.235000000
H     1.576000000     2.326000000     5.285000000
H     0.213000000     1.705000000     5.068000000
O    -2.517000000    -2.474000000    -3.390000000
H    -3.156000000    -3.175000000    -3.515000000
H    -2.287000000    -2.199000000    -4.278000000
O    -1.749000000    -2.045000000    -6.356000000
H    -2.523000000    -1.881000000    -6.895000000
H    -1.333000000    -2.806000000    -6.761000000
O     1.164000000    -1.052000000    -6.436000000
H     1.570000000    -1.244000000    -5.591000000
H     0.269000000    -0.792000000    -6.219000000
O     1.192000000    -3.385000000    -2.793000000
H     1.630000000    -4.133000000    -2.387000000
H     0.868000000    -2.868000000    -2.055000000
O    -0.858000000    -1.816000000     6.400000000
H    -1.456000000    -1.766000000     7.146000000
H    -1.034000000    -2.673000000     6.010000000
O    -1.683000000    -2.942000000     1.882000000
H    -2.498000000    -2.471000000     2.057000000
H    -1.707000000    -3.120000000     0.942000000
O     4.802000000     1.206000000    -4.370000000
H     4.373000000     0.958000000    -5.189000000
H     4.374000000     0.669000000    -3.703000000
O    -3.322000000    -2.370000000     5.354000000
H    -3.675000000    -2.038000000     4.528000000
H    -3.409000000    -3.320000000     5.287000000
O     6.483000000    -4.421000000    -2.054000000
H     5.803000000    -3.761000000    -2.191000000
H     6.305000000    -5.089000000    -2.715000000
O    -4.692000000     0.351000000     5.821000000
H    -4.032000000    -0.294000000     5.568000000
H    -4.895000000     0.142000000     6.732000000
O    -6.543000000     1.186000000     3.418000000
H    -5.627000000     0.912000000     3.444000000
H    -7.040000000     0.373000000     3.512000000
O    -1.797000000     4.553000000    -1.783000000
H    -1.120000000     4.051000000    -1.329000000
H    -1.793000000     4.209000000    -2.676000000
O     4.945000000     1.619000000    -0.653000000
H     4.369000000     1.013000000    -1.118000000
H     4.356000000     2.136000000    -0.103000000
O     4.938000000    -0.401000000     4.482000000
H     4.898000000    -1.237000000     4.946000000
H     4.022000000    -0.171000000     4.323000000
O     7.892000000     1.105000000    -1.267000000
H     7.981000000     0.635000000    -2.096000000
H     6.946000000     1.188000000    -1.140000000
O     0.037000000     1.449000000    -4.635000000
H     0.623000000     0.773000000    -4.295000000
H     0.617000000     2.177000000    -4.860000000
O    -4.023000000     1.839000000    -2.842000000
H    -3.307000000     2.440000000    -2.636000000
H    -3.702000000     1.331000000    -3.587000000
O    -3.633000000    -0.880000000     2.849000000
H    -3.642000000     0.067000000     2.986000000
H    -4.255000000    -1.025000000     2.137000000
O    -2.630000000     0.462000000    -4.716000000
H    -1.791000000     0.826000000    -4.432000000
H    -2.401000000    -0.149000000    -5.416000000
O     5.712000000     3.253000000    -2.853000000
H     5.405000000     2.475000000    -3.320000000
H     5.563000000     3.052000000    -1.929000000
O     0.023000000     3.365000000    -0.030000000
H     0.011000000     2.436000000    -0.258000000
H    -0.345000000     3.399000000     0.854000000
O     4.635000000    -2.379000000    -1.976000000
H     4.351000000    -2.606000000    -1.091000000
H     4.276000000    -1.504000000    -2.126000000
O    -2.164000000    -3.269000000    -0.961000000
H    -2.128000000    -3.041000000    -1.890000000
H    -1.649000000    -4.073000000    -0.891000000
