158
-3050.16977
C    -0.641000000    -0.896000000    -0.961000000
H    -1.200000000    -1.685000000    -1.457000000
C    -0.874000000    -0.791000000     0.385000000
H    -1.641000000    -1.385000000     0.875000000
C    -0.195000000     0.090000000     1.216000000
H    -0.608000000     0.116000000     2.309000000
C     0.799000000     0.897000000     0.667000000
H     1.298000000     1.587000000     1.343000000
C     1.081000000     0.767000000    -0.718000000
H     1.954000000     1.304000000    -1.078000000
C     0.353000000    -0.093000000    -1.549000000
C     0.623000000    -0.137000000    -3.031000000
O     0.023000000    -0.945000000    -3.763000000
O     1.412000000     0.670000000    -3.481000000
O     4.277000000     1.454000000     0.083000000
H     4.646000000     1.367000000     0.962000000
H     4.271000000     2.396000000    -0.083000000
O    -6.222000000    -1.334000000     1.581000000
H    -5.700000000    -0.760000000     1.021000000
H    -6.764000000    -0.737000000     2.097000000
O     3.688000000    -0.524000000    -3.248000000
H     2.902000000     0.022000000    -3.251000000
H     3.394000000    -1.365000000    -2.899000000
O     4.186000000     3.906000000     2.744000000
H     4.624000000     4.184000000     1.939000000
H     3.253000000     3.973000000     2.544000000
O    -0.495000000     4.904000000     0.026000000
H    -0.992000000     5.654000000    -0.303000000
H    -0.016000000     4.582000000    -0.737000000
O     5.742000000     0.970000000    -2.295000000
H     4.938000000     0.514000000    -2.544000000
H     5.678000000     1.069000000    -1.345000000
O    -3.860000000     1.088000000     2.552000000
H    -3.269000000     1.839000000     2.500000000
H    -4.100000000     0.908000000     1.643000000
O     1.566000000    -2.997000000     1.324000000
H     1.125000000    -2.698000000     0.529000000
H     2.418000000    -2.561000000     1.304000000
O    -1.312000000     1.222000000     5.006000000
H    -0.554000000     1.808000000     5.010000000
H    -1.379000000     0.923000000     4.099000000
O     0.071000000    -3.382000000    -3.150000000
H     0.188000000    -3.756000000    -4.023000000
H    -0.080000000    -2.450000000    -3.306000000
O    -1.291000000     1.875000000    -5.243000000
H    -1.184000000     1.211000000    -5.923000000
H    -1.386000000     2.698000000    -5.724000000
O     2.382000000     4.216000000    -1.214000000
H     2.218000000     4.984000000    -1.762000000
H     2.277000000     3.472000000    -1.806000000
O     0.095000000     1.613000000     8.063000000
H    -0.702000000     1.947000000     8.475000000
H    -0.054000000     1.729000000     7.125000000
O     0.497000000    -4.865000000     2.878000000
H     1.079000000    -4.219000000     2.476000000
H    -0.333000000    -4.762000000     2.414000000
O     4.755000000     4.526000000     0.185000000
H     5.297000000     5.308000000     0.293000000
H     3.948000000     4.847000000    -0.215000000
O    -2.986000000    -0.285000000    -7.243000000
H    -3.260000000    -0.947000000    -7.878000000
H    -2.092000000    -0.532000000    -7.010000000
O     3.639000000    -1.263000000     0.484000000
H     3.305000000    -1.805000000    -0.231000000
H     3.467000000    -0.364000000     0.204000000
O    -3.753000000    -6.413000000    -2.071000000
H    -2.933000000    -6.838000000    -2.322000000
H    -3.481000000    -5.619000000    -1.611000000
O     4.931000000    -1.867000000    -5.330000000
H     4.511000000    -1.256000000    -4.724000000
H     5.856000000    -1.622000000    -5.315000000
O    -2.520000000    -3.785000000    -1.158000000
H    -1.902000000    -3.665000000    -1.879000000
H    -3.237000000    -3.182000000    -1.354000000
O    -5.459000000     0.507000000     4.709000000
H    -6.253000000     0.196000000     4.274000000
H    -4.856000000     0.706000000     3.993000000
O     1.825000000     1.316000000    -5.901000000
H     1.720000000     1.227000000    -4.954000000
H     1.805000000     0.417000000    -6.229000000
O     5.846000000     1.282000000     2.588000000
H     6.370000000     0.751000000     3.189000000
H     5.381000000     1.897000000     3.156000000
O    -4.981000000    -0.826000000    -2.670000000
H    -5.058000000    -1.318000000    -3.487000000
H    -4.195000000    -0.292000000    -2.785000000
O     3.929000000     4.389000000    -5.402000000
H     4.534000000     3.656000000    -5.288000000
H     3.180000000     4.170000000    -4.849000000
O    -1.503000000     2.909000000     2.236000000
H    -1.058000000     3.425000000     2.908000000
H    -1.587000000     3.506000000     1.492000000
O    -0.126000000    -4.166000000    -5.814000000
H     0.135000000    -5.051000000    -6.068000000
H     0.086000000    -3.625000000    -6.575000000
O    -0.057000000     4.746000000     4.010000000
H    -0.210000000     5.038000000     4.908000000
H     0.584000000     4.040000000     4.094000000
O     1.478000000    -0.296000000     5.667000000
H     0.950000000    -0.846000000     5.089000000
H     1.651000000    -0.847000000     6.431000000
O     2.834000000     6.728000000     2.199000000
H     3.340000000     6.719000000     1.387000000
H     2.393000000     5.879000000     2.216000000
O    -2.800000000     0.045000000    -3.811000000
H    -2.033000000    -0.512000000    -3.945000000
H    -2.660000000     0.791000000    -4.394000000
O    -2.650000000    -3.675000000    -4.953000000
H    -1.712000000    -3.735000000    -5.135000000
H    -3.069000000    -3.954000000    -5.767000000
O    -1.766000000    -4.654000000     1.466000000
H    -1.897000000    -3.854000000     1.975000000
H    -2.049000000    -4.425000000     0.581000000
O     0.128000000    -2.157000000     4.364000000
H    -0.253000000    -2.628000000     3.623000000
H     0.230000000    -2.824000000     5.044000000
O    -0.258000000    -5.908000000    -2.484000000
H     0.336000000    -5.997000000    -1.739000000
H    -0.375000000    -4.964000000    -2.585000000
O    -2.472000000    -1.124000000     6.355000000
H    -1.637000000    -1.562000000     6.517000000
H    -2.251000000    -0.387000000     5.786000000
O    -0.736000000     4.947000000    -3.276000000
H    -1.258000000     5.748000000    -3.234000000
H    -1.366000000     4.243000000    -3.121000000
O    -2.583000000     1.652000000    -0.470000000
H    -2.031000000     2.430000000    -0.395000000
H    -2.030000000     0.935000000    -0.159000000
O     1.517000000     3.815000000    -4.304000000
H     0.762000000     4.261000000    -3.921000000
H     1.191000000     2.944000000    -4.531000000
O    -2.981000000     3.110000000    -3.212000000
H    -2.426000000     2.363000000    -2.988000000
H    -3.510000000     2.802000000    -3.948000000
O    -0.572000000    -0.768000000    -6.201000000
H    -0.106000000    -0.815000000    -5.366000000
H    -0.182000000    -1.463000000    -6.732000000
O     2.069000000     3.563000000    -7.209000000
H     2.616000000     4.036000000    -6.582000000
H     1.942000000     2.700000000    -6.814000000
O     1.837000000     4.406000000     1.495000000
H     2.094000000     4.388000000     0.574000000
H     0.904000000     4.623000000     1.479000000
O    -4.969000000     0.413000000    -0.105000000
H    -4.081000000     0.752000000    -0.223000000
H    -5.172000000    -0.018000000    -0.935000000
O    -2.723000000    -2.849000000     3.368000000
H    -2.790000000    -2.721000000     4.314000000
H    -3.618000000    -3.042000000     3.089000000
O     1.373000000     2.652000000     5.258000000
H     1.492000000     2.841000000     6.189000000
H     1.487000000     1.704000000     5.190000000
O     5.935000000     2.335000000    -4.988000000
H     5.664000000     1.734000000    -4.294000000
H     6.765000000     1.978000000    -5.304000000
O     2.201000000    -3.466000000    -1.545000000
H     2.906000000    -3.839000000    -2.074000000
H     1.474000000    -3.358000000    -2.158000000
