158
-3046.62790
C    -0.385000000    -0.771000000    -1.237000000
H    -0.650000000    -1.473000000    -2.024000000
C    -1.038000000    -0.835000000     0.046000000
H    -1.936000000    -1.439000000     0.146000000
C    -0.633000000    -0.008000000     1.043000000
H    -0.978000000    -0.008000000     2.025000000
C     0.494000000     0.794000000     0.891000000
H     0.849000000     1.350000000     1.755000000
C     1.127000000     0.882000000    -0.329000000
H     2.038000000     1.456000000    -0.476000000
C     0.689000000     0.101000000    -1.424000000
C     1.490000000     0.053000000    -2.749000000
O     1.265000000    -0.871000000    -3.531000000
O     2.457000000     0.801000000    -2.902000000
O     1.865000000    -1.384000000    -6.061000000
H     1.606000000    -1.440000000    -5.141000000
H     1.854000000    -0.447000000    -6.256000000
O     5.139000000     0.583000000     2.069000000
H     6.049000000     0.546000000     1.774000000
H     4.764000000     1.325000000     1.595000000
O    -5.746000000     0.058000000    -0.571000000
H    -6.173000000     0.914000000    -0.521000000
H    -6.442000000    -0.540000000    -0.843000000
O    -4.830000000     0.260000000     2.689000000
H    -4.918000000     0.081000000     1.753000000
H    -5.730000000     0.336000000     3.004000000
O    -2.387000000     1.662000000     6.457000000
H    -1.467000000     1.887000000     6.317000000
H    -2.685000000     1.335000000     5.608000000
O     2.597000000    -2.061000000    -0.342000000
H     2.089000000    -1.554000000     0.292000000
H     3.496000000    -2.019000000    -0.016000000
O    -0.693000000     4.229000000     5.540000000
H     0.004000000     4.281000000     6.193000000
H    -1.316000000     4.907000000     5.800000000
O    -4.807000000     0.308000000    -4.243000000
H    -4.445000000     0.781000000    -3.494000000
H    -4.377000000    -0.547000000    -4.218000000
O     4.011000000    -1.518000000    -3.690000000
H     3.675000000    -1.917000000    -4.493000000
H     3.393000000    -0.812000000    -3.498000000
O    -4.325000000    -5.973000000    -0.781000000
H    -4.400000000    -5.074000000    -0.462000000
H    -3.575000000    -5.954000000    -1.375000000
O     3.660000000     3.231000000    -2.273000000
H     3.124000000     2.460000000    -2.458000000
H     4.229000000     3.317000000    -3.038000000
O     5.062000000    -3.601000000    -1.899000000
H     5.263000000    -2.982000000    -1.197000000
H     4.863000000    -3.049000000    -2.656000000
O     2.776000000    -1.991000000     2.461000000
H     2.961000000    -1.079000000     2.684000000
H     3.616000000    -2.439000000     2.565000000
O     5.365000000    -1.587000000     0.165000000
H     5.389000000    -1.436000000     1.110000000
H     5.314000000    -0.710000000    -0.216000000
O    -4.624000000    -3.180000000     0.056000000
H    -4.458000000    -2.735000000    -0.775000000
H    -5.562000000    -3.059000000     0.209000000
O    -4.692000000     2.855000000     3.823000000
H    -5.420000000     2.659000000     4.413000000
H    -4.476000000     2.014000000     3.421000000
O    -3.433000000    -0.772000000     5.253000000
H    -3.958000000    -0.565000000     4.479000000
H    -2.832000000    -1.456000000     4.958000000
O    -3.672000000    -2.396000000    -2.729000000
H    -2.988000000    -2.834000000    -3.235000000
H    -3.220000000    -1.682000000    -2.281000000
O    -1.212000000     4.691000000     0.862000000
H    -0.547000000     4.440000000     1.502000000
H    -1.645000000     5.451000000     1.252000000
O     1.695000000     4.605000000    -5.897000000
H     1.728000000     3.649000000    -5.860000000
H     2.466000000     4.890000000    -5.406000000
O     3.218000000    -4.541000000    -4.789000000
H     2.826000000    -4.746000000    -3.941000000
H     2.510000000    -4.135000000    -5.289000000
O     2.179000000    -2.113000000     6.912000000
H     2.154000000    -2.307000000     5.975000000
H     1.283000000    -2.267000000     7.213000000
O    -5.499000000     4.079000000     1.031000000
H    -4.842000000     4.764000000     1.154000000
H    -5.296000000     3.429000000     1.704000000
O    -2.255000000    -5.455000000    -2.454000000
H    -1.810000000    -4.678000000    -2.792000000
H    -1.546000000    -6.042000000    -2.192000000
O    -0.511000000    -3.698000000    -3.445000000
H     0.398000000    -3.568000000    -3.176000000
H    -0.461000000    -4.331000000    -4.161000000
O     0.551000000    -2.604000000    -8.431000000
H     0.749000000    -2.225000000    -9.287000000
H     0.612000000    -1.867000000    -7.823000000
O    -1.716000000     1.873000000    -3.644000000
H    -2.052000000     1.342000000    -2.922000000
H    -1.278000000     2.609000000    -3.216000000
O     1.845000000    -3.663000000    -2.389000000
H     2.101000000    -3.073000000    -1.680000000
H     2.047000000    -3.179000000    -3.189000000
O    -0.864000000    -1.969000000     7.495000000
H    -1.582000000    -2.477000000     7.875000000
H    -0.967000000    -2.079000000     6.550000000
O    -2.059000000    -5.381000000     1.524000000
H    -2.539000000    -4.774000000     2.087000000
H    -1.699000000    -4.829000000     0.829000000
O     0.577000000    -3.584000000     2.873000000
H     0.455000000    -4.168000000     2.125000000
H     1.411000000    -3.145000000     2.701000000
O     2.172000000     4.311000000    -0.243000000
H     2.535000000     4.046000000    -1.088000000
H     2.591000000     5.151000000    -0.056000000
O    -1.440000000    -2.713000000     4.487000000
H    -0.722000000    -3.053000000     3.953000000
H    -2.209000000    -3.200000000     4.191000000
O     3.197000000     3.311000000     5.014000000
H     3.998000000     3.479000000     4.517000000
H     3.333000000     2.447000000     5.403000000
O    -0.221000000     4.942000000    -1.609000000
H    -0.706000000     5.156000000    -0.812000000
H     0.667000000     4.754000000    -1.307000000
O     4.612000000     0.716000000    -1.316000000
H     3.688000000     0.696000000    -1.568000000
H     5.051000000     1.143000000    -2.052000000
O     4.633000000     2.956000000     0.600000000
H     3.917000000     3.556000000     0.389000000
H     4.618000000     2.309000000    -0.105000000
O    -1.777000000    -0.744000000    -4.588000000
H    -0.831000000    -0.881000000    -4.638000000
H    -1.881000000     0.207000000    -4.572000000
O     2.786000000     1.629000000    -5.620000000
H     3.643000000     1.250000000    -5.818000000
H     2.634000000     1.411000000    -4.700000000
O    -3.562000000     0.605000000    -1.828000000
H    -3.391000000     1.434000000    -1.380000000
H    -4.071000000     0.093000000    -1.200000000
O    -3.665000000    -3.518000000     2.791000000
H    -4.522000000    -3.674000000     3.189000000
H    -3.839000000    -3.495000000     1.850000000
O     0.375000000     1.677000000     5.044000000
H     1.275000000     1.833000000     4.758000000
H    -0.001000000     2.551000000     5.141000000
O     4.328000000     0.616000000     4.857000000
H     4.730000000    -0.113000000     5.329000000
H     4.671000000     0.542000000     3.966000000
O    -2.371000000    -3.135000000    -5.813000000
H    -1.567000000    -3.610000000    -5.603000000
H    -2.278000000    -2.295000000    -5.363000000
O    -2.372000000     2.398000000    -0.058000000
H    -1.965000000     3.202000000     0.266000000
H    -1.710000000     1.721000000     0.083000000
O     5.396000000     1.330000000    -6.236000000
H     5.649000000     1.686000000    -7.088000000
H     6.215000000     1.011000000    -5.857000000
O     6.654000000    -0.998000000    -3.222000000
H     6.906000000    -1.892000000    -3.454000000
H     5.700000000    -1.029000000    -3.148000000
O    -0.246000000    -3.917000000    -0.035000000
H    -0.127000000    -2.987000000     0.158000000
H     0.336000000    -4.084000000    -0.776000000
