158
-3012.05082
C    -0.454000000    -0.645000000    -1.307000000
H    -0.903000000    -1.108000000    -2.182000000
C    -0.779000000    -1.059000000    -0.029000000
H    -1.413000000    -1.919000000     0.172000000
C    -0.362000000    -0.340000000     1.129000000
H    -0.643000000    -0.675000000     2.094000000
C     0.520000000     0.644000000     0.995000000
H     0.936000000     1.161000000     1.856000000
C     0.887000000     1.099000000    -0.260000000
H     1.616000000     1.892000000    -0.409000000
C     0.485000000     0.405000000    -1.450000000
C     0.931000000     0.812000000    -2.824000000
O     0.457000000     0.401000000    -3.841000000
O     1.990000000     1.449000000    -2.906000000
O    -1.536000000     1.278000000    -7.632000000
H    -1.131000000     2.114000000    -7.401000000
H    -0.977000000     0.925000000    -8.325000000
O     5.246000000    -0.250000000     2.402000000
H     4.634000000    -0.970000000     2.556000000
H     6.053000000    -0.679000000     2.119000000
O    -3.451000000     2.584000000     2.516000000
H    -3.068000000     3.375000000     2.138000000
H    -4.041000000     2.255000000     1.838000000
O     2.367000000    -2.319000000     5.227000000
H     2.691000000    -1.907000000     4.426000000
H     2.652000000    -3.231000000     5.158000000
O    -1.853000000     3.609000000     5.007000000
H    -2.551000000     3.192000000     4.501000000
H    -2.306000000     4.249000000     5.557000000
O     2.061000000    -2.432000000    -0.769000000
H     1.722000000    -1.900000000    -0.050000000
H     2.657000000    -3.051000000    -0.349000000
O     0.921000000     0.486000000    -6.309000000
H     0.900000000     1.358000000    -6.701000000
H     0.866000000     0.645000000    -5.367000000
O    -3.333000000    -5.578000000    -2.588000000
H    -4.134000000    -5.176000000    -2.253000000
H    -2.724000000    -4.847000000    -2.694000000
O     4.269000000     3.172000000    -2.159000000
H     3.673000000     2.704000000    -2.744000000
H     3.814000000     3.990000000    -1.958000000
O    -3.264000000    -0.173000000     7.127000000
H    -2.958000000    -1.015000000     6.790000000
H    -4.156000000    -0.345000000     7.428000000
O     5.501000000    -2.428000000    -2.373000000
H     4.908000000    -1.685000000    -2.262000000
H     6.135000000    -2.133000000    -3.027000000
O    -4.171000000     0.514000000     4.021000000
H    -3.822000000     1.252000000     3.522000000
H    -3.691000000    -0.246000000     3.692000000
O     0.455000000    -5.127000000     3.586000000
H    -0.164000000    -4.633000000     3.048000000
H     0.512000000    -5.983000000     3.161000000
O    -4.939000000    -1.019000000    -2.421000000
H    -4.846000000    -0.208000000    -1.919000000
H    -4.642000000    -0.791000000    -3.301000000
O     1.454000000    -0.604000000     7.486000000
H     0.575000000    -0.230000000     7.547000000
H     1.364000000    -1.327000000     6.866000000
O     2.532000000    -4.054000000    -5.213000000
H     1.803000000    -4.049000000    -5.834000000
H     2.349000000    -3.324000000    -4.622000000
O     2.602000000     4.017000000     5.371000000
H     2.526000000     4.966000000     5.469000000
H     2.050000000     3.809000000     4.617000000
O     0.531000000     1.234000000     4.991000000
H     0.027000000     1.345000000     5.797000000
H     0.246000000     0.388000000     4.645000000
O    -1.324000000    -3.571000000    -4.300000000
H    -1.408000000    -4.437000000    -4.698000000
H    -1.280000000    -2.969000000    -5.043000000
O     4.048000000     4.845000000     0.194000000
H     4.830000000     5.311000000     0.490000000
H     4.376000000     4.004000000    -0.124000000
O    -1.810000000    -2.288000000    -7.302000000
H    -1.992000000    -1.479000000    -6.823000000
H    -2.663000000    -2.563000000    -7.639000000
O     0.938000000    -2.244000000    -6.899000000
H     0.020000000    -2.404000000    -7.120000000
H     0.995000000    -1.296000000    -6.782000000
O    -1.093000000     3.731000000    -5.268000000
H    -0.320000000     4.207000000    -5.571000000
H    -0.861000000     3.431000000    -4.389000000
O     1.827000000    -1.929000000    -3.546000000
H     2.093000000    -1.922000000    -2.627000000
H     1.380000000    -1.092000000    -3.673000000
O    -0.465000000    -1.307000000     4.458000000
H    -1.142000000    -1.903000000     4.137000000
H     0.259000000    -1.881000000     4.711000000
O    -1.403000000    -5.082000000     1.398000000
H    -2.281000000    -4.705000000     1.457000000
H    -1.064000000    -4.771000000     0.558000000
O    -3.073000000    -2.885000000     6.298000000
H    -3.091000000    -3.418000000     5.503000000
H    -3.892000000    -3.096000000     6.746000000
O     3.237000000     0.651000000     5.372000000
H     2.313000000     0.738000000     5.140000000
H     3.233000000     0.160000000     6.194000000
O     3.242000000    -2.640000000     2.363000000
H     3.333000000    -3.560000000     2.611000000
H     3.712000000    -2.568000000     1.533000000
O     4.289000000     0.208000000    -5.011000000
H     3.566000000     0.187000000    -4.383000000
H     4.555000000    -0.707000000    -5.100000000
O     2.023000000     5.326000000    -3.263000000
H     1.834000000     4.549000000    -3.790000000
H     2.976000000     5.415000000    -3.301000000
O    -3.120000000    -2.059000000     2.982000000
H    -3.647000000    -2.131000000     2.186000000
H    -3.358000000    -2.830000000     3.497000000
O     2.820000000     3.894000000     2.707000000
H     3.219000000     4.302000000     1.939000000
H     3.464000000     3.247000000     2.996000000
O    -0.625000000     3.908000000    -2.567000000
H    -1.350000000     3.377000000    -2.239000000
H     0.115000000     3.675000000    -2.006000000
O     4.087000000    -0.031000000    -2.143000000
H     3.184000000     0.252000000    -2.287000000
H     4.616000000     0.599000000    -2.632000000
O     5.279000000     1.748000000     0.358000000
H     4.981000000     1.310000000    -0.439000000
H     5.042000000     1.147000000     1.064000000
O    -1.918000000     0.175000000    -5.204000000
H    -1.140000000     0.178000000    -4.646000000
H    -1.664000000     0.688000000    -5.971000000
O     1.397000000    -5.785000000    -1.440000000
H     2.312000000    -5.545000000    -1.585000000
H     0.946000000    -4.949000000    -1.321000000
O     2.092000000     3.225000000    -4.772000000
H     2.629000000     2.932000000    -5.509000000
H     1.908000000     2.426000000    -4.278000000
O    -4.093000000    -4.066000000     0.641000000
H    -4.802000000    -4.282000000     1.247000000
H    -4.523000000    -3.982000000    -0.210000000
O    -0.275000000     4.191000000     2.741000000
H    -0.647000000     3.706000000     3.477000000
H     0.591000000     3.804000000     2.612000000
O     4.833000000     2.155000000     3.773000000
H     4.321000000     1.780000000     4.489000000
H     5.046000000     1.409000000     3.213000000
O    -4.618000000    -0.873000000    -5.036000000
H    -3.757000000    -0.465000000    -4.942000000
H    -4.737000000    -0.970000000    -5.981000000
O     4.172000000     2.694000000    -6.595000000
H     5.044000000     3.003000000    -6.841000000
H     4.328000000     1.855000000    -6.161000000
O    -2.295000000     2.472000000    -1.105000000
H    -2.307000000     3.170000000    -0.450000000
H    -2.135000000     1.674000000    -0.601000000
O     1.534000000     5.994000000     0.051000000
H     2.408000000     5.626000000     0.186000000
H     1.398000000     5.945000000    -0.895000000
O    -3.978000000    -4.321000000     3.945000000
H    -3.396000000    -5.059000000     3.762000000
H    -4.711000000    -4.438000000     3.340000000
O    -0.560000000    -3.902000000    -0.943000000
H    -0.683000000    -3.632000000    -1.852000000
H     0.057000000    -3.265000000    -0.584000000
