158
-3060.15745
C    -1.349000000     0.206000000    -0.368000000
H    -2.407000000     0.219000000    -0.615000000
C    -0.861000000    -0.896000000     0.265000000
H    -1.551000000    -1.714000000     0.457000000
C     0.489000000    -0.992000000     0.604000000
H     0.776000000    -1.841000000     1.183000000
C     1.340000000     0.154000000     0.346000000
H     2.411000000     0.079000000     0.519000000
C     0.773000000     1.265000000    -0.320000000
H     1.404000000     2.102000000    -0.608000000
C    -0.558000000     1.315000000    -0.708000000
C    -1.085000000     2.458000000    -1.477000000
O    -2.184000000     2.320000000    -2.117000000
O    -0.513000000     3.548000000    -1.522000000
O     1.167000000     6.988000000     1.957000000
H     1.101000000     6.755000000     1.031000000
H     0.282000000     6.861000000     2.300000000
O    -5.442000000     3.298000000    -4.936000000
H    -5.311000000     2.350000000    -4.913000000
H    -5.194000000     3.553000000    -5.825000000
O     0.413000000    -1.178000000    -3.500000000
H     0.477000000    -0.223000000    -3.504000000
H     0.541000000    -1.423000000    -2.584000000
O     0.002000000     3.113000000     2.244000000
H     0.342000000     3.411000000     3.087000000
H     0.772000000     2.789000000     1.776000000
O    -4.685000000     5.689000000    -1.076000000
H    -4.023000000     5.134000000    -0.664000000
H    -4.387000000     5.788000000    -1.980000000
O     3.881000000    -3.881000000    -1.895000000
H     4.614000000    -3.874000000    -1.281000000
H     4.179000000    -3.345000000    -2.630000000
O     3.891000000    -5.489000000     4.203000000
H     3.494000000    -6.341000000     4.023000000
H     3.533000000    -4.911000000     3.528000000
O    -1.663000000     1.282000000    -4.483000000
H    -1.896000000     1.890000000    -3.781000000
H    -2.457000000     0.766000000    -4.626000000
O    -0.676000000    -5.158000000    -0.212000000
H    -0.409000000    -4.740000000     0.606000000
H    -0.157000000    -4.719000000    -0.886000000
O     1.145000000     1.437000000    -3.744000000
H     0.374000000     1.904000000    -4.065000000
H     1.772000000     2.129000000    -3.531000000
O    -4.894000000     1.641000000    -1.943000000
H    -4.056000000     1.941000000    -2.295000000
H    -5.054000000     0.807000000    -2.384000000
O     3.114000000     3.886000000     1.523000000
H     3.565000000     3.321000000     0.896000000
H     2.750000000     4.593000000     0.991000000
O     4.409000000    -6.162000000     0.814000000
H     5.130000000    -5.534000000     0.847000000
H     3.670000000    -5.700000000     1.209000000
O     2.443000000    -4.390000000     2.160000000
H     2.871000000    -3.548000000     2.005000000
H     1.507000000    -4.193000000     2.123000000
O    -6.262000000    -1.102000000    -3.021000000
H    -5.790000000    -1.440000000    -2.259000000
H    -6.829000000    -1.824000000    -3.290000000
O    -3.204000000     1.021000000     4.346000000
H    -2.998000000     1.146000000     5.272000000
H    -2.352000000     1.007000000     3.910000000
O     5.852000000    -3.794000000     0.480000000
H     5.624000000    -2.904000000     0.213000000
H     6.644000000    -3.691000000     1.008000000
O    -5.430000000     1.899000000     2.592000000
H    -4.846000000     2.005000000     1.841000000
H    -4.956000000     1.313000000     3.182000000
O     0.579000000    -2.104000000     5.503000000
H     1.532000000    -2.058000000     5.582000000
H     0.267000000    -1.282000000     5.880000000
O    -2.221000000    -2.248000000    -3.728000000
H    -2.583000000    -2.411000000    -2.857000000
H    -1.455000000    -1.696000000    -3.570000000
O     5.063000000     2.628000000    -0.495000000
H     5.501000000     2.265000000     0.275000000
H     5.582000000     2.315000000    -1.235000000
O     1.572000000     5.314000000    -0.617000000
H     2.316000000     5.076000000    -1.169000000
H     0.869000000     4.728000000    -0.897000000
O     3.269000000    -0.133000000    -2.128000000
H     2.345000000    -0.305000000    -1.946000000
H     3.333000000     0.821000000    -2.162000000
O     3.473000000    -1.787000000     2.342000000
H     2.756000000    -1.313000000     2.763000000
H     4.200000000    -1.721000000     2.962000000
O    -2.957000000     4.276000000    -4.046000000
H    -2.873000000     3.657000000    -3.321000000
H    -3.883000000     4.240000000    -4.286000000
O     2.051000000     0.828000000     5.366000000
H     2.522000000     0.787000000     4.534000000
H     1.406000000     1.524000000     5.243000000
O     4.916000000    -0.674000000     4.405000000
H     4.556000000     0.060000000     4.901000000
H     5.598000000    -1.035000000     4.971000000
O    -6.990000000     2.566000000    -0.594000000
H    -6.120000000     2.435000000    -0.969000000
H    -7.593000000     2.273000000    -1.278000000
O    -5.128000000    -2.247000000    -0.651000000
H    -4.310000000    -2.625000000    -0.974000000
H    -5.732000000    -2.987000000    -0.606000000
O     3.316000000     2.758000000    -2.873000000
H     3.479000000     2.837000000    -3.813000000
H     4.057000000     3.205000000    -2.464000000
O    -3.775000000     2.133000000     0.473000000
H    -3.873000000     1.870000000    -0.442000000
H    -3.322000000     2.975000000     0.433000000
O    -4.304000000    -1.889000000     4.425000000
H    -3.961000000    -1.080000000     4.804000000
H    -4.614000000    -1.634000000     3.556000000
O    -0.894000000     0.583000000     2.796000000
H    -0.596000000     1.463000000     3.026000000
H    -1.009000000     0.611000000     1.846000000
O    -2.993000000    -3.982000000    -1.743000000
H    -3.141000000    -4.274000000    -2.643000000
H    -2.359000000    -4.607000000    -1.390000000
O     1.067000000    -3.906000000    -1.849000000
H     1.991000000    -3.751000000    -1.650000000
H     1.051000000    -4.079000000    -2.791000000
O     4.740000000    -1.418000000    -0.025000000
H     4.142000000    -1.059000000    -0.680000000
H     4.212000000    -1.489000000     0.769000000
O    -4.355000000    -5.588000000     1.768000000
H    -5.014000000    -5.227000000     2.362000000
H    -3.729000000    -4.875000000     1.642000000
O    -0.903000000     2.172000000    -7.091000000
H    -1.351000000     1.856000000    -6.307000000
H    -0.102000000     1.649000000    -7.137000000
O     3.367000000     1.369000000     3.065000000
H     3.923000000     0.932000000     2.419000000
H     3.683000000     2.273000000     3.080000000
O     5.748000000     1.136000000     1.488000000
H     5.924000000     0.342000000     0.984000000
H     6.413000000     1.136000000     2.176000000
O    -1.328000000    -2.198000000     3.515000000
H    -0.775000000    -2.274000000     4.292000000
H    -1.405000000    -1.255000000     3.367000000
O    -0.051000000     4.177000000    -3.994000000
H    -0.052000000     4.106000000    -3.040000000
H    -0.943000000     4.446000000    -4.215000000
O    -4.473000000     0.722000000    -4.847000000
H    -4.041000000    -0.074000000    -5.155000000
H    -5.344000000     0.433000000    -4.575000000
O    -2.358000000     4.510000000     0.413000000
H    -1.673000000     4.422000000    -0.250000000
H    -1.905000000     4.375000000     1.245000000
O    -3.174000000    -3.211000000     1.758000000
H    -2.448000000    -3.086000000     2.370000000
H    -3.671000000    -2.394000000     1.807000000
O     1.671000000    -7.330000000    -1.344000000
H     1.189000000    -7.991000000    -0.847000000
H     1.821000000    -6.622000000    -0.718000000
O    -5.697000000    -1.210000000     2.053000000
H    -5.451000000    -1.345000000     1.138000000
H    -6.559000000    -0.797000000     2.011000000
O    -0.174000000    -4.359000000     2.382000000
H    -0.078000000    -4.877000000     3.180000000
H    -0.686000000    -3.596000000     2.651000000
