158
-3039.44384
C    -0.629000000     0.062000000    -1.296000000
H    -0.968000000     0.151000000    -2.325000000
C     0.258000000    -0.891000000    -0.921000000
H     0.728000000    -1.604000000    -1.595000000
C     0.823000000    -0.861000000     0.349000000
H     1.657000000    -1.505000000     0.577000000
C     0.424000000     0.141000000     1.303000000
H     0.962000000     0.359000000     2.222000000
C    -0.594000000     1.016000000     0.912000000
H    -0.922000000     1.658000000     1.726000000
C    -1.083000000     1.026000000    -0.364000000
C    -2.001000000     2.151000000    -0.846000000
O    -2.535000000     2.044000000    -1.899000000
O    -2.186000000     3.133000000    -0.095000000
O    -2.812000000     5.572000000     3.431000000
H    -3.028000000     6.503000000     3.488000000
H    -2.075000000     5.460000000     4.031000000
O     2.822000000     2.903000000     3.306000000
H     2.140000000     3.104000000     2.665000000
H     3.459000000     3.611000000     3.207000000
O    -3.706000000    -0.247000000    -2.720000000
H    -3.326000000     0.508000000    -2.271000000
H    -3.694000000    -0.946000000    -2.065000000
O     7.070000000     0.726000000     1.867000000
H     7.401000000    -0.130000000     1.597000000
H     6.171000000     0.750000000     1.538000000
O     2.632000000    -1.739000000    -3.254000000
H     2.993000000    -1.814000000    -4.137000000
H     1.688000000    -1.651000000    -3.387000000
O    -5.026000000     2.400000000    -0.695000000
H    -5.129000000     2.609000000     0.233000000
H    -4.109000000     2.597000000    -0.885000000
O    -3.590000000     1.552000000     4.692000000
H    -2.792000000     1.642000000     4.170000000
H    -3.958000000     2.436000000     4.720000000
O     1.709000000    -4.473000000    -2.618000000
H     1.846000000    -4.169000000    -1.720000000
H     1.811000000    -3.687000000    -3.155000000
O     2.743000000    -1.540000000     5.941000000
H     2.344000000    -0.996000000     6.620000000
H     2.882000000    -0.943000000     5.206000000
O    -5.466000000     1.514000000    -4.668000000
H    -4.908000000     0.765000000    -4.877000000
H    -5.007000000     1.963000000    -3.958000000
O     2.833000000    -2.540000000     2.805000000
H     2.887000000    -1.727000000     3.307000000
H     1.958000000    -2.880000000     2.993000000
O    -6.197000000     3.669000000     2.018000000
H    -5.666000000     4.450000000     2.180000000
H    -6.626000000     3.494000000     2.855000000
O    -2.065000000    -3.282000000    -3.513000000
H    -1.721000000    -4.119000000    -3.824000000
H    -2.852000000    -3.136000000    -4.037000000
O    -4.419000000    -2.167000000    -4.724000000
H    -5.246000000    -2.541000000    -4.421000000
H    -4.294000000    -1.389000000    -4.180000000
O    -1.368000000    -0.831000000     5.037000000
H    -1.625000000    -1.320000000     5.819000000
H    -1.226000000     0.062000000     5.350000000
O     2.810000000    -6.282000000    -0.264000000
H     3.172000000    -6.571000000     0.574000000
H     2.864000000    -5.327000000    -0.231000000
O     1.037000000    -7.683000000     2.407000000
H     1.826000000    -7.183000000     2.617000000
H     0.455000000    -7.047000000     1.990000000
O    -2.421000000     2.591000000    -4.567000000
H    -2.584000000     2.447000000    -3.635000000
H    -2.713000000     3.489000000    -4.725000000
O    -3.422000000     5.354000000     0.708000000
H    -3.378000000     5.125000000     1.637000000
H    -2.954000000     4.646000000     0.265000000
O     0.269000000    -2.912000000     3.415000000
H    -0.122000000    -2.048000000     3.551000000
H     0.323000000    -3.291000000     4.292000000
O     1.675000000    -3.053000000    -5.968000000
H     0.989000000    -3.631000000    -6.303000000
H     1.211000000    -2.434000000    -5.403000000
O    -0.887000000    -5.781000000    -3.607000000
H    -0.091000000    -5.482000000    -3.168000000
H    -0.834000000    -6.737000000    -3.574000000
O     3.285000000    -3.199000000    -0.444000000
H     3.266000000    -2.839000000     0.442000000
H     4.155000000    -2.975000000    -0.775000000
O     3.267000000     0.176000000     3.541000000
H     3.558000000     0.189000000     2.630000000
H     3.094000000     1.094000000     3.751000000
O    -0.079000000    -1.534000000    -4.529000000
H    -0.637000000    -2.031000000    -3.933000000
H    -0.689000000    -1.006000000    -5.045000000
O     0.594000000     1.016000000     5.650000000
H     0.286000000     1.765000000     5.140000000
H     0.415000000     0.257000000     5.095000000
O     6.668000000    -3.779000000     1.156000000
H     6.190000000    -4.132000000     1.907000000
H     7.497000000    -3.471000000     1.523000000
O    -6.714000000    -0.126000000    -0.848000000
H    -7.151000000     0.104000000    -0.028000000
H    -6.199000000     0.649000000    -1.071000000
O    -2.287000000    -3.595000000    -0.861000000
H    -1.599000000    -4.254000000    -0.766000000
H    -2.211000000    -3.298000000    -1.768000000
O     6.051000000     0.135000000    -2.080000000
H     5.969000000    -0.731000000    -2.480000000
H     5.203000000     0.287000000    -1.662000000
O    -0.799000000    -5.931000000    -0.530000000
H    -0.758000000    -5.749000000     0.409000000
H     0.079000000    -5.729000000    -0.852000000
O     0.136000000     4.662000000    -3.594000000
H    -0.252000000     4.744000000    -2.723000000
H    -0.331000000     3.931000000    -3.997000000
O     1.284000000     3.997000000     1.105000000
H     0.578000000     3.491000000     0.703000000
H     1.176000000     4.881000000     0.753000000
O    -3.230000000    -0.840000000     2.857000000
H    -4.059000000    -0.529000000     3.222000000
H    -2.581000000    -0.638000000     3.530000000
O     3.304000000     0.234000000    -1.414000000
H     3.164000000    -0.497000000    -2.018000000
H     2.439000000     0.404000000    -1.041000000
O    -2.175000000    -0.244000000    -5.857000000
H    -2.785000000    -0.054000000    -6.570000000
H    -2.410000000     0.377000000    -5.168000000
O    -3.767000000     7.085000000    -1.672000000
H    -3.878000000     6.555000000    -0.883000000
H    -3.460000000     7.933000000    -1.351000000
O    -0.405000000    -5.281000000     1.979000000
H    -0.251000000    -4.399000000     2.317000000
H    -1.203000000    -5.570000000     2.420000000
O    -6.655000000     5.651000000    -0.155000000
H    -6.112000000     5.235000000     0.514000000
H    -6.527000000     6.589000000    -0.019000000
O     4.479000000     0.703000000     1.104000000
H     4.256000000     1.630000000     1.189000000
H     4.163000000     0.460000000     0.234000000
O    -1.082000000     2.721000000     4.261000000
H    -1.115000000     2.839000000     3.312000000
H    -0.727000000     3.545000000     4.593000000
O    -0.233000000     2.115000000    -6.325000000
H    -0.948000000     1.855000000    -5.743000000
H    -0.671000000     2.438000000    -7.112000000
O     4.969000000    -4.163000000     3.173000000
H     5.189000000    -4.089000000     4.102000000
H     4.338000000    -3.459000000     3.020000000
O    -3.878000000    -1.730000000     0.427000000
H    -3.282000000    -2.314000000    -0.041000000
H    -3.357000000    -1.386000000     1.152000000
O     4.031000000     3.245000000     0.158000000
H     3.170000000     3.574000000     0.414000000
H     3.876000000     2.786000000    -0.668000000
O    -0.570000000     5.146000000    -0.980000000
H    -0.565000000     5.988000000    -0.524000000
H    -1.265000000     4.647000000    -0.552000000
O     5.443000000    -2.382000000    -2.575000000
H     6.048000000    -3.096000000    -2.775000000
H     4.579000000    -2.732000000    -2.792000000
O    -6.983000000     3.649000000    -2.214000000
H    -6.242000000     3.175000000    -1.835000000
H    -7.142000000     4.371000000    -1.606000000
