158
-3060.84066
C    -0.258000000    -0.325000000    -1.416000000
H    -0.350000000    -0.625000000    -2.457000000
C     0.643000000    -0.993000000    -0.627000000
H     1.224000000    -1.798000000    -1.070000000
C     0.844000000    -0.574000000     0.686000000
H     1.572000000    -1.077000000     1.275000000
C     0.163000000     0.510000000     1.197000000
H     0.432000000     0.830000000     2.200000000
C    -0.910000000     1.060000000     0.434000000
H    -1.627000000     1.795000000     0.791000000
C    -1.065000000     0.724000000    -0.916000000
C    -2.080000000     1.403000000    -1.750000000
O    -2.594000000     0.748000000    -2.672000000
O    -2.448000000     2.533000000    -1.516000000
O     3.119000000     2.226000000     1.170000000
H     2.678000000     3.060000000     1.009000000
H     2.963000000     1.715000000     0.376000000
O    -2.793000000    -1.397000000    -4.137000000
H    -2.702000000    -0.655000000    -3.540000000
H    -2.026000000    -1.941000000    -3.961000000
O     2.665000000    -0.831000000    -4.765000000
H     2.830000000    -0.920000000    -5.704000000
H     1.900000000    -1.382000000    -4.603000000
O    -4.723000000     2.275000000    -4.254000000
H    -4.314000000     1.905000000    -3.472000000
H    -4.065000000     2.874000000    -4.608000000
O     5.237000000    -5.669000000     0.447000000
H     6.006000000    -6.169000000     0.722000000
H     5.372000000    -4.798000000     0.820000000
O    -3.216000000    -0.358000000     4.579000000
H    -2.540000000    -0.834000000     4.096000000
H    -3.988000000    -0.922000000     4.529000000
O     4.607000000    -2.733000000     5.507000000
H     4.725000000    -1.817000000     5.761000000
H     4.121000000    -2.693000000     4.684000000
O     1.066000000    -5.711000000    -4.390000000
H     0.143000000    -5.709000000    -4.140000000
H     1.336000000    -4.795000000    -4.319000000
O     3.213000000    -1.677000000     3.438000000
H     2.679000000    -1.024000000     3.891000000
H     3.997000000    -1.200000000     3.167000000
O     2.631000000    -4.364000000     2.130000000
H     2.987000000    -3.514000000     2.389000000
H     2.040000000    -4.604000000     2.844000000
O    -5.431000000    -0.468000000    -1.643000000
H    -4.983000000     0.280000000    -1.247000000
H    -6.359000000    -0.315000000    -1.462000000
O    -5.132000000     1.691000000     0.092000000
H    -4.585000000     2.363000000    -0.314000000
H    -4.709000000     1.513000000     0.932000000
O    -1.658000000    -4.166000000    -4.642000000
H    -2.166000000    -4.377000000    -5.425000000
H    -2.123000000    -4.605000000    -3.930000000
O    -3.699000000    -0.742000000    -6.535000000
H    -3.339000000    -0.816000000    -5.651000000
H    -4.579000000    -0.387000000    -6.406000000
O    -0.805000000     1.149000000     5.651000000
H    -0.239000000     1.579000000     6.291000000
H    -1.510000000     0.767000000     6.173000000
O    -0.141000000    -2.666000000     6.281000000
H     0.334000000    -2.681000000     7.112000000
H    -1.004000000    -2.318000000     6.504000000
O    -1.499000000     1.696000000    -4.783000000
H    -1.964000000     1.444000000    -3.985000000
H    -1.972000000     2.463000000    -5.104000000
O     4.704000000     2.065000000     4.630000000
H     4.080000000     1.378000000     4.864000000
H     5.539000000     1.607000000     4.532000000
O    -4.081000000     4.621000000    -1.542000000
H    -3.545000000     4.877000000    -0.791000000
H    -3.703000000     3.791000000    -1.834000000
O    -3.926000000     1.438000000     2.515000000
H    -3.427000000     2.161000000     2.895000000
H    -3.749000000     0.695000000     3.092000000
O     0.333000000    -3.136000000     3.766000000
H     1.050000000    -2.512000000     3.658000000
H     0.144000000    -3.124000000     4.705000000
O     2.905000000    -4.992000000     5.568000000
H     3.632000000    -5.553000000     5.298000000
H     3.292000000    -4.120000000     5.650000000
O     0.938000000    -4.703000000    -0.526000000
H     1.870000000    -4.531000000    -0.660000000
H     0.849000000    -4.811000000     0.421000000
O     3.386000000    -4.110000000    -1.126000000
H     4.126000000    -4.691000000    -0.950000000
H     3.723000000    -3.479000000    -1.761000000
O    -3.153000000     4.844000000     0.972000000
H    -2.607000000     5.172000000     1.686000000
H    -3.905000000     4.445000000     1.409000000
O     4.899000000     0.051000000     2.424000000
H     5.553000000    -0.117000000     1.746000000
H     4.640000000     0.962000000     2.286000000
O     0.518000000    -2.612000000    -5.124000000
H    -0.215000000    -3.109000000    -4.761000000
H     0.264000000    -2.437000000    -6.030000000
O    -1.651000000     2.639000000     3.447000000
H    -0.803000000     2.963000000     3.144000000
H    -1.445000000     2.108000000     4.216000000
O     2.067000000     0.516000000     4.630000000
H     1.700000000     1.168000000     4.033000000
H     1.524000000     0.577000000     5.416000000
O    -5.416000000    -1.790000000    -3.958000000
H    -5.529000000    -1.332000000    -3.125000000
H    -4.488000000    -1.681000000    -4.167000000
O    -1.554000000    -3.456000000    -1.282000000
H    -0.772000000    -3.831000000    -0.877000000
H    -1.905000000    -4.162000000    -1.826000000
O     1.060000000     2.867000000    -3.430000000
H     0.570000000     2.278000000    -4.004000000
H     0.393000000     3.431000000    -3.040000000
O     1.567000000     4.635000000     0.109000000
H     0.928000000     4.849000000    -0.570000000
H     2.187000000     5.364000000     0.093000000
O    -2.008000000     5.350000000     4.140000000
H    -2.694000000     5.421000000     4.803000000
H    -1.733000000     4.434000000     4.177000000
O    -1.754000000    -1.580000000     2.532000000
H    -1.530000000    -0.888000000     1.910000000
H    -0.965000000    -2.120000000     2.585000000
O     4.249000000    -2.287000000    -3.019000000
H     4.683000000    -2.819000000    -3.686000000
H     3.825000000    -1.584000000    -3.512000000
O    -2.422000000    -4.191000000     1.261000000
H    -2.502000000    -3.369000000     1.744000000
H    -2.262000000    -3.923000000     0.356000000
O    -0.642000000     0.350000000    -7.055000000
H    -1.401000000     0.681000000    -7.534000000
H    -0.747000000     0.697000000    -6.169000000
O    -3.384000000     7.093000000    -2.605000000
H    -3.764000000     6.302000000    -2.222000000
H    -2.650000000     7.308000000    -2.030000000
O    -6.676000000     4.676000000    -0.482000000
H    -5.926000000     4.349000000    -0.979000000
H    -7.154000000     5.225000000    -1.103000000
O     4.889000000     0.449000000    -1.556000000
H     4.033000000     0.849000000    -1.406000000
H     4.694000000    -0.466000000    -1.758000000
O     0.640000000     3.949000000     2.709000000
H     1.218000000     4.401000000     3.324000000
H     0.901000000     4.278000000     1.849000000
O    -1.872000000     5.852000000    -4.674000000
H    -0.956000000     6.030000000    -4.459000000
H    -2.371000000     6.328000000    -4.010000000
O     5.531000000    -2.945000000     1.309000000
H     4.709000000    -3.019000000     0.824000000
H     5.670000000    -2.002000000     1.401000000
O    -4.259000000    -3.055000000    -0.855000000
H    -3.377000000    -3.040000000    -1.227000000
H    -4.603000000    -2.178000000    -1.020000000
O     2.340000000     1.350000000    -1.377000000
H     1.481000000     1.109000000    -1.028000000
H     2.148000000     1.985000000    -2.067000000
O    -0.607000000     4.477000000    -1.756000000
H    -0.934000000     5.266000000    -1.325000000
H    -1.315000000     3.839000000    -1.657000000
O    -3.084000000     3.865000000    -5.787000000
H    -3.895000000     4.173000000    -6.192000000
H    -2.668000000     4.659000000    -5.450000000
