158
-3019.03850
C    -0.591000000    -0.182000000    -1.360000000
H    -1.022000000    -0.466000000    -2.317000000
C     0.234000000    -1.107000000    -0.701000000
H     0.526000000    -2.081000000    -1.085000000
C     0.633000000    -0.814000000     0.601000000
H     1.410000000    -1.462000000     1.013000000
C     0.222000000     0.330000000     1.255000000
H     0.609000000     0.499000000     2.257000000
C    -0.495000000     1.294000000     0.573000000
H    -0.675000000     2.243000000     1.071000000
C    -0.855000000     1.101000000    -0.765000000
C    -1.566000000     2.185000000    -1.531000000
O    -1.741000000     2.012000000    -2.717000000
O    -1.792000000     3.272000000    -0.992000000
O    -2.856000000     6.530000000     0.112000000
H    -3.554000000     7.075000000     0.477000000
H    -3.156000000     6.318000000    -0.772000000
O    -2.438000000     0.496000000    -5.704000000
H    -1.948000000     0.937000000    -5.010000000
H    -2.000000000     0.762000000    -6.512000000
O     4.744000000    -4.958000000    -2.262000000
H     4.360000000    -5.102000000    -3.127000000
H     5.056000000    -4.054000000    -2.286000000
O     2.423000000     0.326000000    -3.275000000
H     2.601000000     0.945000000    -3.982000000
H     2.455000000    -0.534000000    -3.695000000
O    -4.028000000     2.811000000     0.538000000
H    -4.830000000     3.296000000     0.341000000
H    -3.472000000     2.947000000    -0.229000000
O    -2.141000000     3.302000000    -5.128000000
H    -2.018000000     2.812000000    -4.315000000
H    -1.253000000     3.489000000    -5.432000000
O    -3.345000000    -1.168000000    -3.585000000
H    -3.351000000    -0.928000000    -4.512000000
H    -3.229000000    -0.338000000    -3.123000000
O     0.649000000    -3.321000000    -4.892000000
H     0.932000000    -2.496000000    -5.286000000
H     1.124000000    -3.995000000    -5.378000000
O     0.311000000     3.316000000    -6.022000000
H     0.743000000     3.940000000    -6.606000000
H     0.990000000     2.675000000    -5.812000000
O     0.523000000     5.418000000     2.941000000
H     0.005000000     6.187000000     3.178000000
H     0.305000000     5.255000000     2.024000000
O     5.475000000    -2.349000000     5.226000000
H     5.435000000    -1.525000000     4.741000000
H     4.798000000    -2.265000000     5.898000000
O    -1.212000000    -5.459000000     0.338000000
H    -1.522000000    -4.739000000     0.886000000
H    -1.916000000    -5.598000000    -0.296000000
O     2.869000000    -6.226000000     2.934000000
H     2.561000000    -7.076000000     2.620000000
H     2.078000000    -5.786000000     3.247000000
O    -5.927000000    -0.104000000    -2.152000000
H    -6.780000000     0.270000000    -2.370000000
H    -5.327000000     0.278000000    -2.794000000
O     5.785000000    -0.160000000    -0.957000000
H     4.860000000     0.064000000    -1.065000000
H     5.780000000    -1.087000000    -0.719000000
O     0.336000000    -7.815000000     1.834000000
H     0.446000000    -8.034000000     0.909000000
H    -0.238000000    -7.049000000     1.832000000
O    -2.506000000     3.998000000     2.503000000
H    -2.364000000     4.768000000     1.952000000
H    -3.065000000     3.427000000     1.977000000
O    -2.589000000    -0.948000000     3.716000000
H    -3.300000000    -0.714000000     3.120000000
H    -2.235000000    -0.107000000     4.007000000
O     2.059000000    -2.880000000     4.456000000
H     2.234000000    -2.714000000     5.383000000
H     2.649000000    -2.286000000     3.991000000
O     1.441000000    -0.074000000     6.351000000
H     2.199000000     0.325000000     5.925000000
H     0.728000000     0.548000000     6.205000000
O    -4.553000000     1.525000000    -4.159000000
H    -3.981000000     1.250000000    -4.875000000
H    -4.132000000     2.308000000    -3.803000000
O     0.477000000     7.550000000    -2.387000000
H     0.162000000     6.932000000    -3.047000000
H     0.824000000     6.997000000    -1.687000000
O    -0.255000000     5.193000000     0.168000000
H    -1.130000000     5.580000000     0.135000000
H    -0.343000000     4.361000000    -0.297000000
O     4.476000000    -4.377000000     2.028000000
H     3.976000000    -4.926000000     2.632000000
H     4.374000000    -4.802000000     1.176000000
O    -1.860000000     1.564000000     3.848000000
H    -2.304000000     2.412000000     3.832000000
H    -1.763000000     1.327000000     2.925000000
O     2.071000000     6.433000000    -0.347000000
H     2.034000000     7.223000000     0.191000000
H     1.233000000     5.997000000    -0.191000000
O     2.898000000     0.751000000    -0.752000000
H     2.767000000     0.727000000    -1.700000000
H     2.178000000     0.229000000    -0.398000000
O     3.583000000     0.509000000     4.712000000
H     4.441000000     0.926000000     4.627000000
H     3.389000000     0.179000000     3.834000000
O    -0.661000000     1.491000000     6.269000000
H    -1.384000000     1.372000000     5.653000000
H    -1.078000000     1.486000000     7.131000000
O    -1.251000000    -3.396000000     5.713000000
H    -1.885000000    -4.111000000     5.671000000
H    -1.082000000    -3.171000000     4.798000000
O     0.443000000     3.954000000    -3.060000000
H     0.377000000     4.531000000    -3.821000000
H    -0.464000000     3.759000000    -2.827000000
O    -4.154000000     5.402000000    -4.891000000
H    -3.710000000     4.594000000    -5.149000000
H    -4.780000000     5.566000000    -5.596000000
O    -3.442000000    -1.589000000     0.453000000
H    -3.817000000    -0.826000000     0.892000000
H    -2.545000000    -1.329000000     0.244000000
O     2.080000000    -1.123000000    -5.527000000
H     2.845000000    -1.684000000    -5.660000000
H     2.234000000    -0.369000000    -6.096000000
O     0.489000000    -5.118000000     3.636000000
H    -0.344000000    -4.800000000     3.289000000
H     0.992000000    -4.323000000     3.815000000
O    -1.655000000    -3.206000000    -3.117000000
H    -2.327000000    -2.576000000    -3.378000000
H    -0.958000000    -3.093000000    -3.763000000
O     0.972000000     2.746000000     3.399000000
H     0.935000000     3.696000000     3.504000000
H     0.066000000     2.457000000     3.505000000
O     3.192000000     2.326000000     1.580000000
H     2.345000000     2.261000000     2.020000000
H     3.128000000     1.715000000     0.846000000
O    -4.451000000     0.396000000     1.957000000
H    -4.510000000     1.234000000     1.498000000
H    -5.324000000     0.263000000     2.326000000
O     3.615000000    -6.870000000    -0.765000000
H     3.915000000    -6.045000000    -1.145000000
H     4.102000000    -7.544000000    -1.240000000
O     4.086000000    -1.522000000     2.905000000
H     4.307000000    -2.425000000     2.679000000
H     4.732000000    -0.993000000     2.437000000
O    -3.451000000    -3.786000000    -1.238000000
H    -2.912000000    -3.720000000    -2.026000000
H    -3.403000000    -2.916000000    -0.841000000
O    -4.529000000    -3.361000000    -4.692000000
H    -3.700000000    -3.380000000    -5.172000000
H    -4.528000000    -2.514000000    -4.246000000
O    -2.808000000     5.496000000    -2.505000000
H    -2.908000000     5.187000000    -3.405000000
H    -2.371000000     4.776000000    -2.051000000
O    -0.373000000    -5.527000000    -2.582000000
H     0.032000000    -5.522000000    -1.715000000
H    -0.731000000    -4.646000000    -2.684000000
O     3.075000000     3.324000000    -2.563000000
H     2.141000000     3.505000000    -2.670000000
H     3.163000000     3.050000000    -1.650000000
O    -1.722000000    -3.787000000     2.435000000
H    -2.101000000    -2.911000000     2.505000000
H    -2.394000000    -4.368000000     2.791000000
O    -3.128000000     8.353000000    -2.839000000
H    -2.707000000     7.524000000    -2.610000000
H    -3.838000000     8.445000000    -2.205000000
