158
-3036.12843
C     0.416000000     0.266000000    -1.349000000
H     0.826000000     0.260000000    -2.356000000
C     0.682000000    -0.918000000    -0.697000000
H     1.268000000    -1.705000000    -1.165000000
C     0.141000000    -1.069000000     0.623000000
H     0.223000000    -2.002000000     1.027000000
C    -0.519000000     0.023000000     1.222000000
H    -0.873000000    -0.202000000     2.225000000
C    -0.703000000     1.272000000     0.546000000
H    -1.095000000     2.139000000     1.072000000
C    -0.255000000     1.348000000    -0.816000000
C    -0.523000000     2.538000000    -1.645000000
O    -0.028000000     2.633000000    -2.755000000
O    -1.148000000     3.475000000    -1.200000000
O    -1.727000000     7.097000000     0.655000000
H    -2.367000000     7.313000000     1.334000000
H    -2.256000000     6.884000000    -0.113000000
O    -1.525000000     0.237000000    -4.080000000
H    -1.057000000     1.000000000    -3.740000000
H    -1.134000000     0.080000000    -4.940000000
O     4.145000000    -1.728000000    -3.181000000
H     4.167000000    -1.686000000    -4.137000000
H     3.903000000    -2.634000000    -2.987000000
O    -3.549000000     2.390000000    -1.435000000
H    -4.317000000     2.955000000    -1.350000000
H    -2.804000000     2.989000000    -1.384000000
O    -5.494000000     4.178000000    -0.773000000
H    -5.113000000     4.716000000    -0.079000000
H    -6.201000000     4.716000000    -1.132000000
O    -0.354000000    -2.394000000    -4.063000000
H    -0.586000000    -2.641000000    -4.958000000
H    -0.790000000    -1.553000000    -3.925000000
O    -4.618000000     6.651000000    -0.035000000
H    -4.679000000     7.307000000    -0.729000000
H    -5.291000000     6.907000000     0.596000000
O     3.781000000    -4.272000000    -2.067000000
H     3.075000000    -4.859000000    -2.337000000
H     3.966000000    -4.520000000    -1.162000000
O    -0.660000000     0.091000000    -6.460000000
H    -1.390000000    -0.033000000    -7.067000000
H     0.097000000     0.246000000    -7.025000000
O    -1.132000000     4.078000000    -4.816000000
H    -0.813000000     3.550000000    -4.084000000
H    -0.357000000     4.231000000    -5.357000000
O    -3.345000000    -1.629000000    -2.622000000
H    -2.716000000    -1.047000000    -3.048000000
H    -4.117000000    -1.082000000    -2.477000000
O     1.200000000    -5.482000000    -3.345000000
H     0.771000000    -5.262000000    -4.172000000
H     0.690000000    -5.021000000    -2.680000000
O     0.863000000     4.550000000    -6.857000000
H     1.005000000     3.911000000    -7.555000000
H     0.344000000     5.242000000    -7.268000000
O     0.419000000     5.098000000     3.837000000
H    -0.186000000     5.823000000     3.994000000
H     0.829000000     5.307000000     2.998000000
O    -2.769000000    -4.330000000     2.654000000
H    -3.243000000    -3.554000000     2.354000000
H    -3.397000000    -4.794000000     3.208000000
O     2.885000000    -4.699000000     1.626000000
H     3.762000000    -4.915000000     1.311000000
H     2.310000000    -5.321000000     1.180000000
O    -5.440000000     0.330000000    -2.345000000
H    -6.383000000     0.492000000    -2.313000000
H    -5.045000000     1.173000000    -2.123000000
O    -0.327000000    -7.537000000     3.471000000
H    -1.248000000    -7.613000000     3.723000000
H    -0.326000000    -6.889000000     2.766000000
O     2.290000000     5.594000000    -4.840000000
H     1.869000000     5.125000000    -5.561000000
H     2.150000000     6.519000000    -5.043000000
O    -4.260000000     1.409000000     3.728000000
H    -4.808000000     1.191000000     2.974000000
H    -3.620000000     2.034000000     3.386000000
O     0.794000000    -3.117000000     3.562000000
H     1.496000000    -2.476000000     3.449000000
H     0.433000000    -2.927000000     4.429000000
O     2.237000000    -1.073000000     6.725000000
H     2.526000000    -0.184000000     6.521000000
H     1.472000000    -1.211000000     6.166000000
O    -3.693000000     2.316000000    -4.641000000
H    -3.268000000     3.110000000    -4.316000000
H    -3.392000000     1.624000000    -4.052000000
O     0.855000000     6.672000000    -2.321000000
H     1.085000000     5.897000000    -2.833000000
H     0.601000000     6.327000000    -1.465000000
O     0.525000000     5.391000000     0.199000000
H    -0.189000000     5.991000000     0.413000000
H     0.090000000     4.628000000    -0.181000000
O     2.433000000    -5.148000000     5.448000000
H     2.937000000    -4.412000000     5.100000000
H     1.567000000    -5.054000000     5.050000000
O    -3.137000000     3.934000000     3.230000000
H    -3.044000000     4.314000000     4.103000000
H    -3.013000000     4.672000000     2.633000000
O     2.352000000     5.881000000     1.947000000
H     2.610000000     6.784000000     1.765000000
H     1.896000000     5.597000000     1.155000000
O     4.041000000     0.275000000    -1.193000000
H     4.523000000    -0.183000000    -0.505000000
H     3.899000000    -0.389000000    -1.868000000
O     2.384000000    -1.165000000     3.152000000
H     2.076000000    -0.499000000     3.767000000
H     2.409000000    -0.717000000     2.307000000
O    -0.263000000    -1.585000000     5.705000000
H    -0.664000000    -1.870000000     6.526000000
H    -1.004000000    -1.393000000     5.131000000
O     2.401000000     3.279000000    -3.451000000
H     2.257000000     4.020000000    -4.040000000
H     1.556000000     3.149000000    -3.020000000
O    -1.190000000     2.072000000     5.138000000
H    -1.490000000     2.520000000     4.347000000
H    -1.237000000     2.739000000     5.823000000
O    -2.838000000    -1.145000000     0.241000000
H    -2.067000000    -0.607000000     0.420000000
H    -2.811000000    -1.296000000    -0.704000000
O    -0.270000000    -4.954000000     1.644000000
H    -1.082000000    -4.548000000     1.948000000
H     0.421000000    -4.489000000     2.116000000
O    -0.365000000    -4.030000000    -1.752000000
H    -0.059000000    -3.540000000    -0.988000000
H    -0.134000000    -3.478000000    -2.499000000
O     1.533000000     1.059000000     4.856000000
H     1.944000000     1.910000000     5.006000000
H     0.597000000     1.221000000     4.979000000
O     2.659000000     2.469000000    -0.413000000
H     1.791000000     2.074000000    -0.339000000
H     3.231000000     1.745000000    -0.668000000
O    -5.282000000     1.339000000     1.252000000
H    -4.454000000     1.566000000     0.829000000
H    -5.915000000     1.303000000     0.534000000
O     4.713000000    -2.915000000     3.070000000
H     3.943000000    -2.351000000     2.989000000
H     4.442000000    -3.746000000     2.678000000
O     4.001000000     5.019000000    -1.538000000
H     3.644000000     4.404000000    -0.898000000
H     3.700000000     4.687000000    -2.384000000
O     3.079000000     1.348000000    -5.417000000
H     2.540000000     1.865000000    -4.818000000
H     3.957000000     1.378000000    -5.036000000
O    -2.009000000     5.879000000    -2.241000000
H    -1.295000000     6.210000000    -2.785000000
H    -1.811000000     4.950000000    -2.124000000
O    -4.276000000    -2.033000000     2.490000000
H    -3.849000000    -1.445000000     1.866000000
H    -5.185000000    -2.078000000     2.192000000
O    -2.171000000    -6.040000000    -0.076000000
H    -1.942000000    -6.028000000     0.853000000
H    -1.545000000    -5.442000000    -0.485000000
O     5.103000000     1.687000000    -3.753000000
H     4.667000000     1.968000000    -2.948000000
H     5.813000000     1.119000000    -3.455000000
O    -2.959000000    -1.255000000     4.582000000
H    -3.313000000    -0.366000000     4.585000000
H    -3.415000000    -1.692000000     3.863000000
O    -3.776000000     7.851000000    -3.430000000
H    -4.380000000     7.632000000    -4.140000000
H    -3.538000000     7.006000000    -3.049000000
