158
-3027.92355
C    -1.113000000     0.663000000     0.687000000
H    -2.049000000     1.017000000     1.112000000
C    -0.912000000    -0.709000000     0.569000000
H    -1.637000000    -1.446000000     0.906000000
C     0.193000000    -1.178000000    -0.074000000
H     0.289000000    -2.285000000    -0.081000000
C     1.043000000    -0.324000000    -0.659000000
H     1.788000000    -0.715000000    -1.348000000
C     0.935000000     1.050000000    -0.471000000
H     1.670000000     1.671000000    -0.978000000
C    -0.120000000     1.550000000     0.260000000
C    -0.277000000     2.990000000     0.524000000
O    -1.137000000     3.368000000     1.323000000
O     0.494000000     3.855000000     0.045000000
O     2.071000000     4.176000000     2.154000000
H     1.543000000     3.925000000     1.396000000
H     1.455000000     4.171000000     2.887000000
O     4.453000000     5.752000000     1.621000000
H     3.745000000     5.150000000     1.849000000
H     4.733000000     6.121000000     2.459000000
O     2.498000000    -1.172000000    -4.259000000
H     1.804000000    -1.811000000    -4.414000000
H     2.036000000    -0.345000000    -4.118000000
O    -1.708000000     1.987000000     3.528000000
H    -2.357000000     1.430000000     3.098000000
H    -1.632000000     2.751000000     2.957000000
O    -1.498000000    -4.213000000    -2.214000000
H    -0.839000000    -3.845000000    -1.625000000
H    -1.193000000    -5.102000000    -2.390000000
O     2.707000000    -1.293000000     2.093000000
H     2.035000000    -1.846000000     2.492000000
H     2.389000000    -0.399000000     2.222000000
O    -0.617000000    -6.887000000    -1.697000000
H    -0.689000000    -6.847000000    -0.743000000
H    -0.560000000    -7.822000000    -1.893000000
O    -0.409000000     1.283000000    -4.040000000
H    -0.124000000     1.078000000    -4.930000000
H    -0.375000000     2.239000000    -3.991000000
O    -2.945000000     7.475000000     0.884000000
H    -2.641000000     6.918000000     1.601000000
H    -2.199000000     8.040000000     0.686000000
O    -4.126000000    -3.745000000    -2.853000000
H    -4.307000000    -3.347000000    -2.001000000
H    -3.210000000    -4.016000000    -2.801000000
O    -4.345000000     3.124000000     4.397000000
H    -4.913000000     2.444000000     4.035000000
H    -3.518000000     2.677000000     4.575000000
O    -3.801000000     3.748000000    -0.580000000
H    -2.977000000     4.120000000    -0.265000000
H    -3.536000000     3.024000000    -1.146000000
O     1.032000000     6.463000000    -0.336000000
H     0.658000000     5.584000000    -0.286000000
H     0.426000000     7.010000000     0.165000000
O    -0.309000000     4.839000000    -2.672000000
H    -0.998000000     5.459000000    -2.431000000
H     0.017000000     4.507000000    -1.835000000
O    -0.556000000     1.113000000     6.383000000
H    -1.101000000     1.178000000     5.600000000
H     0.329000000     0.971000000     6.048000000
O     0.390000000     0.364000000     3.331000000
H    -0.131000000     1.151000000     3.173000000
H    -0.144000000    -0.350000000     2.983000000
O     3.398000000    -3.833000000    -2.806000000
H     3.234000000    -3.573000000    -1.899000000
H     3.181000000    -3.056000000    -3.321000000
O     2.800000000     7.797000000    -2.042000000
H     2.279000000     7.235000000    -1.468000000
H     3.399000000     7.196000000    -2.486000000
O     4.875000000    -1.877000000    -5.396000000
H     4.140000000    -1.684000000    -4.814000000
H     5.259000000    -1.021000000    -5.587000000
O    -3.749000000    -4.042000000     0.768000000
H    -3.287000000    -4.729000000     0.288000000
H    -4.665000000    -4.319000000     0.762000000
O     2.151000000    -7.226000000     0.768000000
H     2.573000000    -8.084000000     0.793000000
H     2.330000000    -6.896000000    -0.112000000
O     3.811000000    -2.787000000    -0.191000000
H     3.302000000    -2.344000000     0.488000000
H     4.591000000    -3.105000000     0.264000000
O    -1.886000000     5.537000000     2.811000000
H    -1.169000000     5.606000000     3.442000000
H    -1.648000000     4.793000000     2.258000000
O     1.664000000     7.219000000     3.441000000
H     1.301000000     6.463000000     2.979000000
H     0.951000000     7.520000000     4.003000000
O     5.241000000     2.316000000    -3.284000000
H     4.783000000     1.905000000    -2.551000000
H     4.605000000     2.929000000    -3.651000000
O    -1.427000000    -0.854000000    -2.820000000
H    -1.129000000     0.015000000    -3.087000000
H    -0.954000000    -1.030000000    -2.006000000
O    -5.444000000     2.863000000     1.406000000
H    -4.892000000     3.372000000     0.813000000
H    -5.634000000     3.461000000     2.129000000
O    -4.855000000    -1.528000000     1.679000000
H    -5.203000000    -1.067000000     0.916000000
H    -4.503000000    -2.345000000     1.324000000
O     2.200000000    -6.138000000    -4.723000000
H     2.205000000    -5.317000000    -4.231000000
H     1.418000000    -6.085000000    -5.272000000
O    -1.917000000    -6.613000000     0.830000000
H    -2.639000000    -6.378000000     1.412000000
H    -1.219000000    -6.900000000     1.419000000
O     0.371000000     7.227000000    -3.669000000
H     0.524000000     7.822000000    -2.935000000
H     0.238000000     6.372000000    -3.260000000
O     3.075000000     3.995000000    -1.437000000
H     2.301000000     3.939000000    -0.876000000
H     3.753000000     3.519000000    -0.958000000
O     1.067000000    -5.435000000     3.877000000
H     1.159000000    -6.149000000     3.247000000
H     0.245000000    -5.619000000     4.330000000
O     4.476000000     1.700000000     0.239000000
H     4.245000000     1.780000000     1.165000000
H     5.289000000     2.198000000     0.152000000
O     2.612000000     2.608000000    -3.972000000
H     2.079000000     2.877000000    -4.720000000
H     1.980000000     2.450000000    -3.271000000
O     0.398000000    -3.203000000    -4.389000000
H     0.051000000    -2.825000000    -5.197000000
H    -0.373000000    -3.351000000    -3.842000000
O     4.576000000     5.856000000    -2.700000000
H     3.964000000     5.347000000    -2.168000000
H     5.434000000     5.481000000    -2.503000000
O    -2.070000000     6.353000000    -1.502000000
H    -2.397000000     6.767000000    -0.703000000
H    -2.859000000     6.130000000    -1.996000000
O     5.620000000    -0.474000000    -1.042000000
H     5.131000000     0.309000000    -0.790000000
H     4.982000000    -1.185000000    -0.979000000
O    -5.112000000    -2.688000000     4.543000000
H    -5.154000000    -1.931000000     5.126000000
H    -4.938000000    -2.316000000     3.678000000
O    -3.662000000     6.462000000     4.685000000
H    -3.277000000     6.088000000     5.477000000
H    -3.327000000     5.915000000     3.974000000
O     0.163000000    -3.166000000     2.732000000
H     0.470000000    -3.969000000     3.153000000
H    -0.752000000    -3.089000000     3.001000000
O    -5.706000000    -2.036000000    -1.082000000
H    -6.435000000    -2.454000000    -0.624000000
H    -6.093000000    -1.262000000    -1.491000000
O    -2.370000000    -3.574000000     3.432000000
H    -3.056000000    -3.923000000     4.001000000
H    -2.664000000    -3.785000000     2.546000000
O    -3.776000000    -1.381000000    -4.334000000
H    -3.001000000    -1.032000000    -3.894000000
H    -3.764000000    -2.317000000    -4.134000000
O    -4.036000000     0.617000000     2.804000000
H    -4.328000000    -0.271000000     2.603000000
H    -4.628000000     1.182000000     2.308000000
O    -0.209000000     4.035000000    -5.207000000
H    -0.108000000     4.546000000    -4.403000000
H    -0.767000000     4.577000000    -5.765000000
O    -4.595000000     0.235000000     5.726000000
H    -4.054000000     0.280000000     4.938000000
H    -5.400000000     0.696000000     5.491000000
