158
-3039.87975
C    -1.176000000     0.941000000     0.352000000
H    -2.027000000     1.538000000     0.670000000
C    -1.228000000    -0.452000000     0.065000000
H    -2.168000000    -0.982000000     0.197000000
C    -0.123000000    -1.253000000    -0.282000000
H    -0.239000000    -2.292000000    -0.445000000
C     1.030000000    -0.548000000    -0.530000000
H     1.880000000    -1.019000000    -1.016000000
C     1.117000000     0.823000000    -0.274000000
H     2.047000000     1.350000000    -0.469000000
C     0.092000000     1.543000000     0.336000000
C     0.372000000     3.020000000     0.716000000
O    -0.485000000     3.753000000     1.138000000
O     1.508000000     3.399000000     0.550000000
O     2.502000000     3.570000000     2.998000000
H     2.195000000     3.499000000     2.094000000
H     2.978000000     2.754000000     3.154000000
O    -4.982000000    -6.349000000     0.372000000
H    -5.141000000    -7.077000000    -0.229000000
H    -4.203000000    -5.916000000     0.023000000
O     5.368000000     5.635000000    -0.103000000
H     5.093000000     4.892000000     0.434000000
H     6.280000000     5.446000000    -0.325000000
O    -6.498000000     2.153000000    -0.397000000
H    -6.347000000     2.123000000     0.547000000
H    -5.896000000     1.502000000    -0.757000000
O     3.617000000     6.603000000     2.835000000
H     3.410000000     5.788000000     3.293000000
H     3.482000000     7.287000000     3.491000000
O     0.917000000    -3.912000000    -2.570000000
H     0.190000000    -4.523000000    -2.454000000
H     0.496000000    -3.067000000    -2.729000000
O    -1.410000000     0.774000000     3.532000000
H    -1.282000000     1.625000000     3.112000000
H    -0.933000000     0.158000000     2.976000000
O    -2.491000000    -4.997000000    -0.543000000
H    -1.919000000    -5.428000000    -1.179000000
H    -2.018000000    -5.062000000     0.287000000
O     0.828000000    -0.804000000     2.699000000
H     1.155000000    -1.701000000     2.621000000
H     0.532000000    -0.580000000     1.817000000
O     1.269000000    -5.055000000     0.614000000
H     0.327000000    -4.920000000     0.511000000
H     1.520000000    -4.463000000     1.323000000
O     0.018000000    -1.393000000    -3.229000000
H     0.464000000    -1.095000000    -2.436000000
H     0.277000000    -0.762000000    -3.901000000
O     2.775000000     0.808000000     3.383000000
H     2.258000000     0.087000000     3.025000000
H     2.836000000     0.618000000     4.319000000
O    -1.921000000     8.643000000     1.517000000
H    -1.893000000     7.773000000     1.913000000
H    -1.036000000     8.781000000     1.179000000
O    -4.460000000    -4.689000000    -2.392000000
H    -4.088000000    -3.853000000    -2.674000000
H    -3.857000000    -5.004000000    -1.719000000
O     4.990000000     1.474000000     2.070000000
H     5.777000000     1.109000000     2.475000000
H     4.267000000     1.104000000     2.575000000
O    -2.860000000     3.528000000     4.516000000
H    -3.660000000     3.796000000     4.063000000
H    -2.953000000     2.582000000     4.627000000
O    -3.332000000     4.278000000     0.552000000
H    -2.378000000     4.216000000     0.595000000
H    -3.543000000     5.062000000     1.060000000
O     2.275000000     5.955000000     0.523000000
H     2.090000000     5.017000000     0.477000000
H     2.708000000     6.072000000     1.368000000
O     0.753000000     3.693000000    -2.291000000
H     0.474000000     4.586000000    -2.088000000
H     1.299000000     3.438000000    -1.547000000
O     1.494000000     5.464000000     4.977000000
H     0.565000000     5.608000000     4.797000000
H     1.759000000     4.794000000     4.346000000
O     1.878000000    -6.683000000    -1.640000000
H     1.846000000    -5.912000000    -1.074000000
H     1.688000000    -7.417000000    -1.057000000
O     3.523000000     6.714000000    -1.963000000
H     2.700000000     6.560000000    -1.500000000
H     4.196000000     6.373000000    -1.374000000
O     2.922000000    -2.995000000    -4.582000000
H     2.288000000    -3.426000000    -4.008000000
H     2.569000000    -2.115000000    -4.712000000
O    -4.826000000    -3.590000000     2.058000000
H    -4.789000000    -4.546000000     2.053000000
H    -5.699000000    -3.382000000     1.724000000
O     4.473000000    -2.842000000     2.041000000
H     4.391000000    -3.054000000     1.111000000
H     5.392000000    -3.014000000     2.246000000
O    -1.754000000     6.059000000     2.503000000
H    -2.467000000     5.773000000     3.074000000
H    -1.128000000     5.335000000     2.521000000
O     5.400000000     0.065000000    -2.211000000
H     5.000000000    -0.200000000    -1.383000000
H     4.680000000     0.450000000    -2.712000000
O    -2.609000000    -0.156000000    -3.000000000
H    -1.843000000    -0.729000000    -3.051000000
H    -2.317000000     0.668000000    -3.391000000
O    -5.211000000     2.852000000     2.884000000
H    -4.627000000     3.282000000     2.260000000
H    -5.984000000     3.416000000     2.917000000
O    -4.546000000    -0.836000000     2.294000000
H    -4.352000000    -0.653000000     1.375000000
H    -4.314000000    -1.757000000     2.410000000
O    -1.328000000    -5.044000000     1.683000000
H    -1.504000000    -4.299000000     2.258000000
H    -1.609000000    -5.807000000     2.188000000
O     3.140000000     2.776000000    -3.958000000
H     3.953000000     3.019000000    -3.515000000
H     2.455000000     3.236000000    -3.472000000
O     3.817000000     3.048000000    -0.638000000
H     2.904000000     3.276000000    -0.464000000
H     4.021000000     2.370000000     0.007000000
O     4.503000000    -0.615000000     0.094000000
H     3.957000000    -1.353000000     0.364000000
H     4.535000000    -0.046000000     0.864000000
O     2.875000000     0.035000000    -3.479000000
H     2.463000000     0.016000000    -4.344000000
H     2.942000000     0.965000000    -3.266000000
O    -4.494000000     4.560000000    -1.937000000
H    -5.277000000     4.019000000    -2.037000000
H    -3.970000000     4.104000000    -1.278000000
O    -1.100000000    -5.680000000    -3.142000000
H    -1.630000000    -5.297000000    -3.841000000
H    -1.271000000    -6.620000000    -3.200000000
O     5.657000000     3.450000000    -2.655000000
H     5.195000000     3.209000000    -1.852000000
H     6.583000000     3.344000000    -2.439000000
O    -0.258000000     5.949000000    -0.515000000
H     0.417000000     6.399000000    -0.007000000
H    -0.647000000     5.328000000     0.100000000
O     3.524000000    -3.249000000    -0.960000000
H     3.684000000    -2.598000000    -1.643000000
H     2.593000000    -3.456000000    -1.041000000
O    -1.156000000     5.394000000     5.320000000
H    -1.347000000     5.187000000     6.235000000
H    -1.634000000     4.734000000     4.819000000
O    -4.686000000     0.277000000    -1.180000000
H    -4.001000000     0.170000000    -1.839000000
H    -5.045000000    -0.602000000    -1.061000000
O    -0.051000000    -3.105000000     4.957000000
H    -0.108000000    -2.532000000     5.721000000
H    -0.931000000    -3.092000000     4.581000000
O     1.837000000    -3.483000000     2.759000000
H     2.756000000    -3.256000000     2.906000000
H     1.430000000    -3.405000000     3.621000000
O    -4.432000000    -2.207000000    -3.881000000
H    -3.815000000    -1.598000000    -3.475000000
H    -3.879000000    -2.890000000    -4.261000000
O    -2.458000000     7.226000000    -1.797000000
H    -3.056000000     7.520000000    -1.110000000
H    -1.747000000     6.792000000    -1.326000000
O    -4.581000000     0.670000000     4.483000000
H    -4.441000000    -0.054000000     3.873000000
H    -4.906000000     1.385000000     3.936000000
O    -0.980000000     2.040000000    -3.317000000
H    -0.427000000     2.492000000    -2.679000000
H    -1.753000000     2.597000000    -3.401000000
