158
-3038.74453
C     0.020000000     0.426000000     1.434000000
H    -0.112000000     0.690000000     2.480000000
C    -1.053000000    -0.241000000     0.724000000
H    -2.024000000    -0.356000000     1.200000000
C    -0.946000000    -0.538000000    -0.626000000
H    -1.780000000    -0.940000000    -1.141000000
C     0.239000000    -0.250000000    -1.232000000
H     0.312000000    -0.549000000    -2.275000000
C     1.302000000     0.301000000    -0.533000000
H     2.251000000     0.457000000    -1.040000000
C     1.197000000     0.672000000     0.815000000
C     2.414000000     1.169000000     1.607000000
O     2.275000000     1.673000000     2.672000000
O     3.515000000     0.853000000     1.251000000
O     4.479000000     2.988000000    -0.016000000
H     4.109000000     2.246000000     0.463000000
H     3.901000000     3.098000000    -0.771000000
O    -2.134000000    -3.756000000    -3.881000000
H    -1.507000000    -3.131000000    -4.244000000
H    -1.691000000    -4.123000000    -3.116000000
O     1.539000000     4.252000000     2.883000000
H     1.871000000     3.371000000     2.708000000
H     0.925000000     4.137000000     3.608000000
O     4.216000000     2.690000000     4.803000000
H     4.892000000     3.368000000     4.801000000
H     3.599000000     2.963000000     4.124000000
O     1.072000000     2.375000000     6.010000000
H     1.697000000     1.755000000     5.635000000
H     0.364000000     1.827000000     6.350000000
O    -3.275000000    -6.082000000    -1.596000000
H    -3.053000000    -6.983000000    -1.831000000
H    -4.209000000    -6.007000000    -1.793000000
O     6.393000000     3.140000000    -2.136000000
H     5.820000000     2.630000000    -1.563000000
H     5.840000000     3.852000000    -2.455000000
O     3.884000000    -3.697000000    -1.421000000
H     4.427000000    -4.442000000    -1.166000000
H     4.510000000    -3.016000000    -1.667000000
O    -6.086000000    -1.884000000    -0.429000000
H    -5.690000000    -1.224000000     0.141000000
H    -5.478000000    -2.622000000    -0.399000000
O    -0.343000000    -1.794000000    -4.436000000
H     0.498000000    -1.965000000    -4.860000000
H    -0.544000000    -0.885000000    -4.660000000
O     6.235000000     0.525000000     1.964000000
H     6.297000000     1.472000000     2.084000000
H     5.312000000     0.369000000     1.763000000
O     3.097000000    -2.029000000     0.643000000
H     3.391000000    -1.143000000     0.431000000
H     3.343000000    -2.552000000    -0.120000000
O    -2.823000000     0.467000000     4.298000000
H    -3.536000000     0.863000000     4.799000000
H    -3.261000000    -0.119000000     3.681000000
O     0.013000000     2.922000000    -0.961000000
H    -0.822000000     2.554000000    -1.249000000
H     0.512000000     2.168000000    -0.648000000
O     1.981000000     6.922000000     1.322000000
H     2.119000000     5.984000000     1.451000000
H     2.252000000     7.321000000     2.149000000
O     2.680000000     0.103000000     4.788000000
H     2.807000000     0.793000000     4.136000000
H     3.566000000    -0.141000000     5.054000000
O     1.985000000    -2.128000000     3.239000000
H     2.205000000    -1.958000000     2.323000000
H     1.997000000    -1.265000000     3.652000000
O    -2.963000000     2.009000000    -2.931000000
H    -3.515000000     2.775000000    -2.773000000
H    -3.286000000     1.350000000    -2.317000000
O     5.642000000     0.395000000     4.902000000
H     6.441000000     0.612000000     4.422000000
H     5.145000000     1.213000000     4.924000000
O     1.932000000     1.044000000    -4.351000000
H     0.985000000     1.145000000    -4.258000000
H     2.118000000     1.337000000    -5.243000000
O     5.471000000    -0.617000000    -3.188000000
H     5.833000000    -1.361000000    -3.670000000
H     6.069000000     0.106000000    -3.378000000
O    -0.439000000     5.354000000     0.326000000
H    -0.261000000     4.476000000    -0.012000000
H     0.332000000     5.570000000     0.851000000
O     8.105000000    -0.513000000     0.464000000
H     8.840000000     0.082000000     0.312000000
H     7.529000000    -0.034000000     1.060000000
O    -4.766000000    -2.921000000    -3.416000000
H    -3.912000000    -3.341000000    -3.311000000
H    -4.962000000    -3.007000000    -4.349000000
O    -7.260000000     1.606000000     1.296000000
H    -6.523000000     0.996000000     1.333000000
H    -6.915000000     2.372000000     0.839000000
O    -4.845000000    -0.390000000    -2.494000000
H    -5.351000000    -0.698000000    -1.742000000
H    -4.560000000    -1.190000000    -2.934000000
O     4.717000000    -3.217000000     2.526000000
H     4.497000000    -2.760000000     3.337000000
H     4.029000000    -2.960000000     1.912000000
O     2.648000000     3.110000000    -1.895000000
H     1.797000000     3.541000000    -1.809000000
H     2.498000000     2.410000000    -2.531000000
O     5.667000000    -1.480000000    -0.630000000
H     5.584000000    -1.184000000    -1.536000000
H     6.379000000    -0.952000000    -0.270000000
O    -0.724000000     1.143000000    -4.546000000
H    -1.267000000     1.323000000    -5.313000000
H    -1.282000000     1.363000000    -3.800000000
O     6.289000000     3.521000000     1.694000000
H     5.626000000     3.364000000     1.022000000
H     6.047000000     4.363000000     2.078000000
O    -3.769000000    -6.016000000    -4.934000000
H    -3.323000000    -5.261000000    -4.551000000
H    -3.365000000    -6.121000000    -5.796000000
O     1.612000000    -1.522000000     7.030000000
H     0.692000000    -1.740000000     6.878000000
H     1.797000000    -0.817000000     6.410000000
O     1.336000000    -3.668000000    -3.321000000
H     0.625000000    -3.274000000    -2.816000000
H     1.964000000    -2.957000000    -3.445000000
O    -4.221000000     4.238000000    -1.859000000
H    -4.481000000     4.958000000    -2.433000000
H    -3.745000000     4.660000000    -1.145000000
O    -5.152000000    -3.915000000     1.579000000
H    -5.353000000    -4.823000000     1.352000000
H    -4.208000000    -3.910000000     1.738000000
O     0.062000000     5.188000000     5.171000000
H     0.476000000     4.392000000     5.505000000
H    -0.830000000     5.156000000     5.516000000
O    -5.909000000     1.514000000    -4.299000000
H    -6.592000000     0.980000000    -3.892000000
H    -5.090000000     1.087000000    -4.048000000
O    -3.359000000     2.312000000     1.853000000
H    -2.498000000     2.693000000     2.026000000
H    -3.866000000     2.496000000     2.643000000
O    -3.010000000    -1.868000000     2.926000000
H    -2.680000000    -2.527000000     2.315000000
H    -3.579000000    -2.356000000     3.521000000
O     0.000000000    -3.442000000     0.733000000
H     0.806000000    -3.953000000     0.806000000
H     0.199000000    -2.773000000     0.077000000
O    -2.469000000    -4.282000000     1.832000000
H    -1.713000000    -4.094000000     1.275000000
H    -2.372000000    -5.205000000     2.064000000
O    -1.179000000    -4.526000000    -1.641000000
H    -0.827000000    -4.788000000    -0.790000000
H    -2.047000000    -4.928000000    -1.675000000
O    -4.726000000     0.139000000     1.204000000
H    -4.174000000    -0.406000000     1.765000000
H    -4.213000000     0.935000000     1.063000000
O     1.473000000    -1.065000000    -6.690000000
H     1.548000000    -0.148000000    -6.426000000
H     2.316000000    -1.267000000    -7.097000000
O     2.797000000    -1.370000000    -3.565000000
H     2.403000000    -0.572000000    -3.920000000
H     3.684000000    -1.109000000    -3.316000000
O    -0.668000000    -2.632000000     4.311000000
H    -1.376000000    -2.200000000     3.832000000
H     0.107000000    -2.496000000     3.768000000
O    -1.284000000     0.543000000     6.818000000
H    -1.442000000     0.616000000     5.877000000
H    -1.963000000     1.086000000     7.218000000
