158
-3054.37187
C    -1.335000000     0.196000000    -0.546000000
H    -2.313000000     0.292000000    -1.009000000
C    -0.441000000    -0.756000000    -1.062000000
H    -0.842000000    -1.501000000    -1.744000000
C     0.842000000    -0.787000000    -0.449000000
H     1.574000000    -1.449000000    -0.824000000
C     1.200000000     0.147000000     0.526000000
H     2.154000000     0.085000000     1.043000000
C     0.286000000     1.032000000     1.075000000
H     0.523000000     1.640000000     1.945000000
C    -1.020000000     1.041000000     0.516000000
C    -2.123000000     1.922000000     1.125000000
O    -3.288000000     1.756000000     0.842000000
O    -1.737000000     2.874000000     1.841000000
O    -1.122000000     3.468000000     4.280000000
H    -1.247000000     3.153000000     3.385000000
H    -1.093000000     2.672000000     4.812000000
O    -3.918000000     2.862000000    -1.686000000
H    -3.834000000     2.473000000    -0.816000000
H    -4.742000000     2.513000000    -2.026000000
O    -5.377000000     5.054000000    -0.508000000
H    -4.450000000     5.089000000    -0.269000000
H    -5.377000000     4.775000000    -1.424000000
O     3.402000000    -0.826000000    -4.442000000
H     4.004000000    -1.567000000    -4.509000000
H     2.559000000    -1.175000000    -4.732000000
O    -3.610000000    -0.516000000     2.441000000
H    -2.807000000    -0.897000000     2.085000000
H    -3.800000000     0.224000000     1.864000000
O    -1.454000000     1.284000000     6.031000000
H    -1.987000000     0.744000000     6.616000000
H    -0.577000000     1.257000000     6.414000000
O    -2.070000000    -5.189000000    -0.011000000
H    -2.197000000    -4.242000000     0.050000000
H    -1.498000000    -5.401000000     0.727000000
O    -6.306000000     4.553000000     4.344000000
H    -5.885000000     3.734000000     4.083000000
H    -6.729000000     4.870000000     3.546000000
O    -2.856000000     1.545000000    -3.845000000
H    -3.005000000     2.136000000    -3.107000000
H    -2.175000000     1.975000000    -4.363000000
O     4.045000000    -0.750000000     3.163000000
H     4.808000000    -1.171000000     3.558000000
H     4.410000000    -0.052000000     2.620000000
O    -5.331000000     2.418000000     2.666000000
H    -5.856000000     1.758000000     2.213000000
H    -4.705000000     2.718000000     2.008000000
O    -4.547000000    -2.967000000    -0.295000000
H    -4.473000000    -2.023000000    -0.157000000
H    -4.620000000    -3.333000000     0.587000000
O     4.435000000     4.203000000     0.675000000
H     5.367000000     4.380000000     0.544000000
H     4.394000000     3.267000000     0.869000000
O    -2.979000000    -3.839000000    -3.229000000
H    -2.645000000    -3.945000000    -2.338000000
H    -2.836000000    -2.914000000    -3.430000000
O    -4.492000000    -0.756000000     5.320000000
H    -4.300000000    -0.798000000     4.383000000
H    -4.258000000     0.136000000     5.574000000
O    -4.738000000     0.019000000    -0.549000000
H    -4.118000000     0.429000000     0.053000000
H    -5.599000000     0.238000000    -0.193000000
O    -0.282000000     4.568000000     0.325000000
H     0.418000000     4.653000000     0.973000000
H    -0.976000000     4.095000000     0.784000000
O    -4.585000000     7.670000000     2.159000000
H    -4.424000000     6.787000000     1.827000000
H    -3.837000000     7.854000000     2.726000000
O    -4.013000000     2.046000000     5.085000000
H    -3.095000000     1.820000000     5.230000000
H    -4.101000000     2.093000000     4.133000000
O     2.232000000    -1.619000000     4.938000000
H     2.331000000    -2.543000000     4.707000000
H     2.556000000    -1.146000000     4.171000000
O     2.418000000    -6.571000000    -2.299000000
H     2.114000000    -6.274000000    -3.156000000
H     3.236000000    -7.034000000    -2.482000000
O    -7.858000000     4.617000000     0.292000000
H    -6.915000000     4.619000000     0.125000000
H    -7.944000000     4.950000000     1.185000000
O     0.899000000    -4.392000000    -5.105000000
H     1.042000000    -5.002000000    -5.829000000
H     0.148000000    -4.752000000    -4.633000000
O     1.540000000    -4.642000000     0.102000000
H     1.987000000    -5.060000000    -0.634000000
H     2.124000000    -3.932000000     0.365000000
O     4.592000000    -5.723000000     2.068000000
H     4.044000000    -5.336000000     2.751000000
H     4.179000000    -6.566000000     1.879000000
O    -1.273000000    -5.796000000    -4.168000000
H    -1.974000000    -5.150000000    -4.079000000
H    -1.229000000    -6.221000000    -3.312000000
O    -3.142000000     5.025000000     1.101000000
H    -2.567000000     5.746000000     1.359000000
H    -2.697000000     4.239000000     1.420000000
O    -1.465000000     6.002000000     3.173000000
H    -1.034000000     5.194000000     3.452000000
H    -1.892000000     6.330000000     3.964000000
O     4.249000000     1.982000000     2.364000000
H     4.942000000     2.332000000     2.925000000
H     3.449000000     2.089000000     2.877000000
O     3.721000000    -4.496000000    -4.893000000
H     3.626000000    -5.390000000    -5.221000000
H     2.865000000    -4.094000000    -5.041000000
O    -2.289000000    -1.266000000    -4.072000000
H    -2.057000000    -0.437000000    -3.654000000
H    -3.086000000    -1.072000000    -4.564000000
O    -5.953000000    -2.185000000     2.647000000
H    -6.716000000    -1.607000000     2.645000000
H    -5.204000000    -1.593000000     2.583000000
O     0.070000000    -5.724000000     1.882000000
H     0.705000000    -5.237000000     1.356000000
H     0.541000000    -6.509000000     2.160000000
O     1.863000000     4.960000000     1.920000000
H     2.572000000     4.692000000     1.335000000
H     2.129000000     5.822000000     2.239000000
O     3.612000000    -2.219000000     0.791000000
H     3.888000000    -1.377000000     0.426000000
H     3.765000000    -2.133000000     1.732000000
O     4.856000000     2.307000000    -1.565000000
H     4.236000000     3.033000000    -1.501000000
H     4.692000000     1.927000000    -2.428000000
O     0.660000000    -1.606000000    -5.205000000
H     0.442000000    -2.537000000    -5.234000000
H     0.133000000    -1.259000000    -4.486000000
O    -2.105000000     5.083000000    -1.898000000
H    -2.743000000     4.382000000    -1.763000000
H    -1.537000000     5.042000000    -1.128000000
O    -0.378000000     4.567000000     6.847000000
H    -0.878000000     4.411000000     6.046000000
H     0.332000000     5.149000000     6.577000000
O     4.155000000     1.825000000    -4.888000000
H     5.099000000     1.822000000    -4.728000000
H     3.846000000     0.998000000    -4.516000000
O     5.049000000    -4.551000000    -0.399000000
H     4.371000000    -3.876000000    -0.371000000
H     4.961000000    -5.014000000     0.433000000
O     2.713000000     3.301000000     4.272000000
H     2.683000000     3.679000000     5.151000000
H     2.129000000     3.854000000     3.753000000
O    -6.865000000     0.613000000     0.885000000
H    -7.273000000     1.457000000     0.694000000
H    -7.420000000     0.226000000     1.562000000
O    -1.641000000    -2.351000000     1.641000000
H    -1.754000000    -2.824000000     2.465000000
H    -0.730000000    -2.059000000     1.655000000
O     5.447000000     0.136000000     0.443000000
H     5.301000000     0.459000000    -0.446000000
H     4.913000000     0.707000000     0.996000000
O    -5.403000000    -0.458000000    -3.379000000
H    -5.064000000    -0.328000000    -2.494000000
H    -6.325000000    -0.680000000    -3.253000000
O     0.406000000     2.720000000    -1.840000000
H     0.034000000     1.865000000    -1.624000000
H     0.176000000     3.276000000    -1.096000000
O     5.700000000    -3.173000000    -3.177000000
H     5.220000000    -3.834000000    -3.676000000
H     5.897000000    -3.598000000    -2.343000000
