158
-3039.21035
C    -0.329000000     1.015000000     0.949000000
H    -0.849000000     1.716000000     1.596000000
C    -1.213000000     0.149000000     0.397000000
H    -2.288000000     0.248000000     0.525000000
C    -0.800000000    -0.795000000    -0.480000000
H    -1.476000000    -1.549000000    -0.956000000
C     0.563000000    -0.894000000    -0.817000000
H     0.861000000    -1.730000000    -1.445000000
C     1.540000000    -0.054000000    -0.158000000
H     2.582000000    -0.117000000    -0.458000000
C     1.046000000     0.988000000     0.685000000
C     2.028000000     2.039000000     1.159000000
O     1.722000000     3.009000000     1.921000000
O     3.158000000     1.869000000     0.961000000
O     4.619000000     3.544000000     2.620000000
H     4.137000000     2.967000000     2.028000000
H     5.540000000     3.356000000     2.441000000
O     7.168000000     3.666000000    -0.466000000
H     7.876000000     3.988000000     0.092000000
H     7.616000000     3.274000000    -1.217000000
O    -4.010000000     2.053000000    -0.397000000
H    -4.809000000     2.574000000    -0.487000000
H    -4.259000000     1.179000000    -0.697000000
O     4.183000000     6.394000000     2.181000000
H     4.308000000     5.457000000     2.334000000
H     3.697000000     6.440000000     1.358000000
O     0.743000000    -3.843000000    -2.845000000
H     0.690000000    -3.203000000    -3.554000000
H     0.964000000    -4.666000000    -3.281000000
O     0.873000000     2.706000000     4.440000000
H     1.285000000     2.852000000     3.589000000
H     1.383000000     3.242000000     5.048000000
O     3.384000000     0.944000000     4.109000000
H     3.710000000     1.844000000     4.085000000
H     2.448000000     1.024000000     3.921000000
O     1.608000000    -1.862000000     2.279000000
H     2.362000000    -2.256000000     1.841000000
H     1.192000000    -1.325000000     1.605000000
O    -1.238000000    -5.510000000    -1.426000000
H    -0.929000000    -5.601000000    -0.525000000
H    -0.854000000    -4.687000000    -1.729000000
O    -0.031000000    -1.033000000    -4.549000000
H     0.833000000    -0.687000000    -4.325000000
H     0.016000000    -1.205000000    -5.489000000
O     4.900000000     0.171000000     1.765000000
H     4.493000000     0.269000000     2.626000000
H     4.269000000     0.558000000     1.157000000
O    -0.719000000     6.610000000    -1.049000000
H    -0.703000000     5.878000000    -0.433000000
H     0.190000000     6.906000000    -1.092000000
O    -3.011000000    -6.005000000    -3.890000000
H    -3.761000000    -5.413000000    -3.845000000
H    -2.286000000    -5.502000000    -3.517000000
O     7.473000000     1.068000000     1.278000000
H     7.303000000     1.626000000     2.037000000
H     6.714000000     0.488000000     1.232000000
O    -1.821000000     3.620000000     4.207000000
H    -2.218000000     3.214000000     3.436000000
H    -1.009000000     3.132000000     4.343000000
O    -1.919000000     2.755000000    -1.967000000
H    -2.594000000     2.615000000    -1.303000000
H    -1.796000000     1.894000000    -2.368000000
O     2.817000000     4.955000000    -0.090000000
H     2.174000000     4.497000000    -0.632000000
H     2.825000000     4.467000000     0.734000000
O     2.869000000     3.028000000    -3.218000000
H     2.050000000     3.020000000    -2.723000000
H     3.527000000     2.715000000    -2.596000000
O     3.340000000     4.276000000     4.778000000
H     3.114000000     5.202000000     4.689000000
H     3.885000000     4.087000000     4.014000000
O    -0.130000000    -1.380000000     4.651000000
H     0.277000000    -1.623000000     3.819000000
H     0.464000000    -0.731000000     5.028000000
O     5.519000000     5.580000000    -1.464000000
H     4.675000000     5.344000000    -1.080000000
H     6.146000000     4.986000000    -1.050000000
O    -3.445000000     5.671000000     2.286000000
H    -3.783000000     5.139000000     1.567000000
H    -3.164000000     5.035000000     2.944000000
O     3.167000000    -2.643000000    -5.331000000
H     2.918000000    -1.888000000    -4.797000000
H     3.496000000    -2.262000000    -6.145000000
O    -6.735000000    -3.537000000     1.238000000
H    -5.955000000    -3.030000000     1.463000000
H    -6.444000000    -4.448000000     1.261000000
O    -3.339000000    -0.170000000    -5.747000000
H    -3.976000000     0.035000000    -6.432000000
H    -3.209000000    -1.116000000    -5.816000000
O    -0.116000000     4.761000000     1.118000000
H    -0.210000000     5.515000000     1.700000000
H     0.524000000     4.199000000     1.555000000
O     5.186000000    -0.487000000    -2.924000000
H     5.345000000    -0.348000000    -1.991000000
H     5.341000000     0.370000000    -3.323000000
O    -2.287000000     0.227000000    -3.294000000
H    -1.448000000    -0.071000000    -3.645000000
H    -2.865000000     0.265000000    -4.056000000
O    -3.475000000     2.561000000     2.404000000
H    -3.415000000     2.388000000     1.465000000
H    -4.411000000     2.680000000     2.566000000
O    -4.681000000    -1.240000000     1.230000000
H    -3.825000000    -1.391000000     1.631000000
H    -4.486000000    -1.056000000     0.311000000
O    -4.310000000    -3.023000000    -6.150000000
H    -3.938000000    -3.714000000    -6.698000000
H    -3.979000000    -3.209000000    -5.271000000
O    -0.431000000    -5.179000000     0.978000000
H    -0.554000000    -4.252000000     1.181000000
H    -0.693000000    -5.635000000     1.778000000
O     4.765000000     2.151000000    -1.077000000
H     4.295000000     2.155000000    -0.243000000
H     5.688000000     2.210000000    -0.831000000
O     6.019000000    -1.707000000    -0.380000000
H     6.364000000    -2.531000000    -0.037000000
H     5.632000000    -1.274000000     0.381000000
O     2.588000000    -0.149000000    -4.077000000
H     3.319000000    -0.321000000    -3.484000000
H     2.935000000     0.480000000    -4.709000000
O     0.573000000     3.706000000    -1.256000000
H    -0.150000000     3.164000000    -1.573000000
H     0.259000000     4.063000000    -0.425000000
O     4.177000000    -5.177000000    -1.270000000
H     4.462000000    -4.292000000    -1.042000000
H     3.422000000    -5.339000000    -0.705000000
O    -3.686000000    -4.865000000     3.727000000
H    -4.116000000    -4.694000000     4.565000000
H    -3.268000000    -4.034000000     3.499000000
O     2.892000000     2.306000000     6.768000000
H     3.190000000     2.937000000     6.114000000
H     2.981000000     2.766000000     7.603000000
O     0.128000000     5.865000000     4.034000000
H    -0.562000000     6.528000000     4.034000000
H    -0.166000000     5.213000000     4.670000000
O    -4.353000000    -0.386000000    -1.584000000
H    -3.496000000    -0.177000000    -1.957000000
H    -4.501000000    -1.301000000    -1.821000000
O    -7.039000000     0.471000000     1.043000000
H    -7.119000000     0.707000000     0.119000000
H    -6.233000000    -0.044000000     1.089000000
O     3.639000000    -3.557000000     2.059000000
H     4.563000000    -3.547000000     1.811000000
H     3.641000000    -3.378000000     2.999000000
O    -5.030000000    -3.028000000    -1.679000000
H    -5.321000000    -3.787000000    -1.173000000
H    -4.838000000    -3.379000000    -2.549000000
O    -2.619000000    -2.241000000     3.571000000
H    -2.974000000    -1.427000000     3.927000000
H    -1.693000000    -2.053000000     3.419000000
O    -1.973000000    -3.183000000    -4.573000000
H    -1.304000000    -2.716000000    -4.073000000
H    -1.479000000    -3.683000000    -5.224000000
O     2.243000000    -5.529000000     0.984000000
H     1.393000000    -5.109000000     0.856000000
H     2.702000000    -4.960000000     1.602000000
O    -4.104000000     0.215000000     3.997000000
H    -5.016000000     0.406000000     4.216000000
H    -3.949000000     0.689000000     3.180000000
