158
-3013.05364
C    -1.077000000    -0.508000000    -0.847000000
H    -1.850000000    -1.070000000    -1.365000000
C    -1.043000000    -0.442000000     0.500000000
H    -1.948000000    -0.679000000     1.054000000
C    -0.001000000     0.061000000     1.236000000
H    -0.024000000     0.128000000     2.318000000
C     1.108000000     0.439000000     0.533000000
H     1.950000000     0.894000000     1.048000000
C     1.095000000     0.361000000    -0.866000000
H     2.045000000     0.573000000    -1.350000000
C     0.023000000    -0.055000000    -1.538000000
C     0.048000000    -0.158000000    -3.090000000
O     1.000000000     0.319000000    -3.689000000
O    -0.951000000    -0.581000000    -3.668000000
O    -4.511000000     1.968000000     6.600000000
H    -4.635000000     2.851000000     6.950000000
H    -3.826000000     2.066000000     5.940000000
O    -2.451000000    -5.735000000     0.877000000
H    -2.257000000    -4.823000000     1.096000000
H    -3.406000000    -5.769000000     0.819000000
O    -0.187000000    -3.734000000    -0.146000000
H     0.156000000    -4.502000000    -0.602000000
H    -0.231000000    -3.054000000    -0.819000000
O     0.507000000     2.892000000    -7.513000000
H     0.553000000     2.660000000    -6.585000000
H     0.895000000     2.144000000    -7.966000000
O     1.582000000    -0.046000000    -8.073000000
H     1.888000000    -0.905000000    -7.783000000
H     0.889000000    -0.239000000    -8.704000000
O     4.160000000     2.218000000     0.107000000
H     3.589000000     2.662000000     0.734000000
H     4.904000000     2.810000000     0.000000000
O    -1.268000000     2.114000000     6.725000000
H    -0.862000000     2.981000000     6.692000000
H    -1.647000000     1.994000000     5.854000000
O    -0.280000000    -5.035000000    -4.158000000
H     0.245000000    -5.272000000    -4.923000000
H    -0.659000000    -4.185000000    -4.382000000
O    -5.282000000     1.432000000     0.806000000
H    -5.620000000     0.754000000     1.392000000
H    -5.977000000     1.558000000     0.160000000
O    -1.999000000     2.015000000     4.225000000
H    -2.882000000     2.303000000     3.991000000
H    -1.433000000     2.418000000     3.567000000
O    -3.969000000    -0.326000000    -3.139000000
H    -3.921000000    -0.399000000    -2.185000000
H    -3.056000000    -0.309000000    -3.424000000
O    -4.449000000    -1.625000000     4.829000000
H    -4.831000000    -2.322000000     5.363000000
H    -5.108000000    -0.931000000     4.835000000
O    -1.994000000    -2.357000000     4.379000000
H    -1.849000000    -3.226000000     4.753000000
H    -2.914000000    -2.167000000     4.563000000
O    -0.875000000    -2.733000000    -7.210000000
H    -0.080000000    -2.562000000    -6.706000000
H    -0.891000000    -3.684000000    -7.318000000
O    -0.672000000     3.949000000    -0.009000000
H    -0.456000000     4.813000000    -0.358000000
H    -1.399000000     3.645000000    -0.553000000
O     2.050000000    -2.464000000     0.951000000
H     1.757000000    -1.579000000     0.738000000
H     1.254000000    -2.994000000     0.923000000
O     1.875000000     2.792000000    -4.387000000
H     1.003000000     2.845000000    -3.996000000
H     2.066000000     1.854000000    -4.420000000
O    -4.586000000    -3.453000000     2.603000000
H    -4.994000000    -2.619000000     2.834000000
H    -3.681000000    -3.226000000     2.388000000
O    -5.962000000    -0.498000000     2.511000000
H    -6.260000000    -0.034000000     3.293000000
H    -6.631000000    -1.166000000     2.359000000
O     4.902000000    -0.219000000     2.037000000
H     5.113000000     0.106000000     1.162000000
H     3.988000000     0.032000000     2.172000000
O    -6.110000000    -3.183000000    -2.582000000
H    -6.111000000    -2.550000000    -3.300000000
H    -5.368000000    -3.757000000    -2.770000000
O    -3.856000000     2.746000000    -3.252000000
H    -3.607000000     3.033000000    -2.373000000
H    -4.398000000     1.970000000    -3.105000000
O     2.059000000    -3.219000000    -2.258000000
H     2.476000000    -2.517000000    -1.759000000
H     2.505000000    -3.210000000    -3.105000000
O    -2.233000000    -3.010000000    -4.331000000
H    -1.823000000    -2.151000000    -4.229000000
H    -2.882000000    -2.885000000    -5.023000000
O    -2.800000000    -0.493000000    -6.606000000
H    -2.503000000     0.129000000    -5.942000000
H    -2.114000000    -1.160000000    -6.634000000
O    -0.172000000    -0.159000000     4.683000000
H    -0.766000000     0.583000000     4.571000000
H    -0.655000000    -0.908000000     4.335000000
O     5.476000000    -0.388000000    -0.630000000
H     4.683000000    -0.170000000    -1.119000000
H     6.174000000     0.087000000    -1.081000000
O    -3.418000000    -3.505000000    -1.651000000
H    -2.843000000    -3.505000000    -2.417000000
H    -3.730000000    -2.603000000    -1.585000000
O    -2.255000000     2.444000000    -7.592000000
H    -1.829000000     1.970000000    -6.877000000
H    -1.592000000     3.062000000    -7.898000000
O     3.209000000     2.351000000     4.848000000
H     2.747000000     3.019000000     5.354000000
H     4.070000000     2.289000000     5.262000000
O    -4.565000000    -0.909000000    -0.516000000
H    -4.609000000    -0.162000000     0.081000000
H    -5.275000000    -1.485000000    -0.233000000
O    -3.289000000     3.052000000    -0.579000000
H    -3.629000000     3.832000000    -0.141000000
H    -3.475000000     2.336000000     0.029000000
O    -2.062000000    -3.124000000     1.784000000
H    -1.726000000    -2.585000000     2.500000000
H    -1.304000000    -3.269000000     1.217000000
O     3.786000000     0.160000000    -3.965000000
H     2.838000000     0.186000000    -3.833000000
H     3.911000000    -0.467000000    -4.678000000
O    -4.443000000     2.897000000     3.318000000
H    -4.154000000     3.784000000     3.104000000
H    -4.626000000     2.493000000     2.470000000
O    -0.441000000     3.117000000     2.483000000
H    -0.869000000     3.227000000     1.634000000
H     0.495000000     3.132000000     2.283000000
O     1.185000000    -1.376000000     6.951000000
H     0.596000000    -2.131000000     6.979000000
H     0.839000000    -0.829000000     6.246000000
O     4.657000000    -2.936000000    -1.143000000
H     4.010000000    -3.259000000    -0.516000000
H     5.093000000    -2.215000000    -0.688000000
O     1.363000000    -2.495000000    -5.593000000
H     2.284000000    -2.686000000    -5.411000000
H     1.147000000    -1.773000000    -5.003000000
O     4.489000000     2.752000000    -3.593000000
H     4.588000000     1.802000000    -3.522000000
H     3.547000000     2.887000000    -3.696000000
O     2.368000000    -0.093000000     3.716000000
H     1.452000000    -0.093000000     3.995000000
H     2.805000000     0.500000000     4.327000000
O     2.582000000     3.101000000     2.206000000
H     2.707000000     4.042000000     2.328000000
H     3.015000000     2.702000000     2.961000000
O     3.762000000     1.882000000    -7.421000000
H     3.503000000     2.469000000    -8.131000000
H     3.041000000     1.256000000    -7.352000000
O     3.068000000    -2.765000000     3.447000000
H     2.763000000    -2.732000000     2.541000000
H     3.006000000    -1.860000000     3.754000000
O     0.393000000     5.454000000     3.738000000
H     1.259000000     5.502000000     3.333000000
H     0.008000000     4.652000000     3.385000000
O     1.725000000     5.317000000    -0.667000000
H     1.622000000     4.576000000    -0.070000000
H     2.599000000     5.204000000    -1.040000000
O    -1.114000000     1.534000000    -5.286000000
H    -0.987000000     0.686000000    -4.860000000
H    -0.970000000     2.176000000    -4.591000000
O    -0.779000000     3.736000000    -3.638000000
H    -1.668000000     3.477000000    -3.881000000
H    -0.889000000     4.240000000    -2.832000000
