158
-3045.67580
C     0.913000000    -0.414000000     1.144000000
H     1.724000000    -0.604000000     1.842000000
C     0.900000000     0.861000000     0.533000000
H     1.568000000     1.591000000     0.983000000
C    -0.041000000     1.129000000    -0.438000000
H    -0.095000000     2.167000000    -0.937000000
C    -0.899000000     0.180000000    -0.941000000
H    -1.567000000     0.408000000    -1.767000000
C    -0.835000000    -1.127000000    -0.441000000
H    -1.509000000    -1.882000000    -0.839000000
C     0.132000000    -1.436000000     0.579000000
C     0.121000000    -2.807000000     1.260000000
O     0.377000000    -2.897000000     2.422000000
O    -0.038000000    -3.791000000     0.554000000
O    -1.418000000     6.798000000    -0.056000000
H    -0.949000000     7.037000000     0.743000000
H    -2.196000000     7.355000000    -0.053000000
O     0.904000000    -4.979000000    -4.419000000
H     1.122000000    -4.247000000    -4.995000000
H     1.120000000    -4.665000000    -3.541000000
O     4.443000000     0.088000000     1.381000000
H     3.828000000     0.431000000     2.030000000
H     5.305000000     0.345000000     1.709000000
O     1.264000000     3.406000000     2.980000000
H     1.962000000     4.045000000     2.838000000
H     0.731000000     3.453000000     2.187000000
O    -5.478000000     1.663000000    -1.156000000
H    -4.967000000     0.855000000    -1.097000000
H    -6.331000000     1.383000000    -1.487000000
O    -3.900000000    -1.965000000     1.773000000
H    -3.356000000    -2.572000000     2.274000000
H    -3.389000000    -1.157000000     1.738000000
O    -5.367000000    -0.644000000    -4.853000000
H    -5.196000000    -1.586000000    -4.862000000
H    -4.563000000    -0.259000000    -4.504000000
O     1.513000000    -3.460000000    -1.505000000
H     1.807000000    -2.549000000    -1.498000000
H     0.881000000    -3.513000000    -0.788000000
O    -3.524000000     3.119000000     2.012000000
H    -3.867000000     4.003000000     2.141000000
H    -3.233000000     2.846000000     2.882000000
O     4.309000000     1.293000000    -1.212000000
H     4.899000000     2.006000000    -0.968000000
H     4.348000000     0.686000000    -0.473000000
O     4.550000000    -3.403000000    -0.429000000
H     5.164000000    -3.259000000    -1.149000000
H     4.071000000    -4.194000000    -0.677000000
O     5.096000000    -1.671000000     3.568000000
H     4.544000000    -1.931000000     2.830000000
H     4.617000000    -1.968000000     4.342000000
O    -3.466000000    -6.087000000     1.521000000
H    -4.081000000    -5.828000000     0.836000000
H    -2.903000000    -5.322000000     1.640000000
O     3.479000000    -3.095000000     1.876000000
H     2.644000000    -2.645000000     1.748000000
H     3.875000000    -3.116000000     1.005000000
O     2.441000000     0.792000000     3.675000000
H     1.846000000     1.537000000     3.583000000
H     3.121000000     1.101000000     4.273000000
O     0.171000000     3.305000000    -5.974000000
H     0.791000000     2.625000000    -5.712000000
H     0.667000000     4.121000000    -5.905000000
O    -0.425000000     0.515000000     6.140000000
H    -0.046000000    -0.190000000     5.616000000
H    -0.099000000     0.357000000     7.026000000
O     0.957000000    -1.398000000     4.584000000
H     0.721000000    -1.858000000     3.779000000
H     1.700000000    -0.847000000     4.335000000
O     3.174000000    -1.176000000    -2.202000000
H     3.572000000    -0.323000000    -2.024000000
H     3.818000000    -1.811000000    -1.889000000
O    -2.036000000    -3.363000000     6.077000000
H    -2.319000000    -2.560000000     6.515000000
H    -1.097000000    -3.415000000     6.256000000
O     0.698000000    -3.274000000     6.576000000
H     1.150000000    -4.045000000     6.232000000
H     0.784000000    -2.618000000     5.885000000
O     1.949000000     1.590000000    -4.720000000
H     2.299000000     2.174000000    -4.047000000
H     1.402000000     0.970000000    -4.237000000
O     4.189000000     5.520000000     0.875000000
H     4.468000000     5.094000000     1.685000000
H     4.842000000     5.254000000     0.227000000
O     0.839000000     8.070000000    -1.177000000
H     1.572000000     7.477000000    -1.011000000
H     0.062000000     7.561000000    -0.945000000
O     1.737000000    -4.517000000     4.318000000
H     1.207000000    -4.106000000     3.635000000
H     2.028000000    -5.343000000     3.930000000
O     1.519000000    -7.561000000     2.987000000
H     1.237000000    -6.957000000     2.301000000
H     2.188000000    -8.102000000     2.570000000
O    -2.089000000     3.344000000    -4.631000000
H    -1.852000000     4.129000000    -4.136000000
H    -1.363000000     3.217000000    -5.241000000
O     2.110000000     5.673000000    -0.586000000
H     3.004000000     5.695000000    -0.244000000
H     1.712000000     4.910000000    -0.167000000
O    -2.872000000     0.716000000    -4.558000000
H    -1.962000000     0.422000000    -4.522000000
H    -2.856000000     1.590000000    -4.167000000
O     2.835000000     2.945000000    -2.771000000
H     3.285000000     2.537000000    -2.031000000
H     2.807000000     3.876000000    -2.549000000
O     3.645000000    -2.470000000     5.605000000
H     2.739000000    -2.359000000     5.316000000
H     3.674000000    -3.357000000     5.965000000
O    -2.193000000    -3.751000000     3.079000000
H    -2.447000000    -3.871000000     3.994000000
H    -1.244000000    -3.628000000     3.108000000
O    -0.324000000    -7.411000000    -1.525000000
H    -0.213000000    -7.294000000    -2.469000000
H    -0.319000000    -8.360000000    -1.399000000
O    -2.265000000    -4.229000000    -0.849000000
H    -2.270000000    -5.144000000    -1.129000000
H    -1.452000000    -4.136000000    -0.352000000
O    -4.022000000    -0.445000000    -0.997000000
H    -3.698000000    -1.034000000    -1.679000000
H    -3.242000000    -0.205000000    -0.497000000
O    -6.480000000    -2.298000000    -2.670000000
H    -6.972000000    -1.495000000    -2.498000000
H    -5.591000000    -2.101000000    -2.375000000
O    -4.710000000     4.683000000    -1.400000000
H    -5.090000000     3.804000000    -1.398000000
H    -4.796000000     4.983000000    -0.495000000
O     3.202000000    -6.131000000    -0.807000000
H     2.340000000    -5.835000000    -0.514000000
H     3.399000000    -6.884000000    -0.250000000
O     0.813000000    -6.161000000     0.632000000
H     0.595000000    -5.229000000     0.622000000
H     0.412000000    -6.510000000    -0.164000000
O    -2.587000000     0.256000000     2.206000000
H    -1.756000000     0.233000000     2.681000000
H    -2.857000000     1.174000000     2.240000000
O     0.132000000    -0.719000000    -3.790000000
H     0.772000000    -1.406000000    -3.978000000
H     0.073000000    -0.702000000    -2.835000000
O    -5.127000000    -3.989000000     0.266000000
H    -5.817000000    -3.337000000     0.388000000
H    -4.312000000    -3.492000000     0.340000000
O    -1.238000000     6.477000000    -3.374000000
H    -0.301000000     6.667000000    -3.413000000
H    -1.389000000     6.202000000    -2.469000000
O     0.647000000     3.301000000     5.741000000
H     0.725000000     3.559000000     4.823000000
H     0.219000000     2.445000000     5.714000000
O    -6.298000000    -1.538000000     0.531000000
H    -5.481000000    -1.613000000     1.025000000
H    -6.150000000    -0.805000000    -0.066000000
O    -3.590000000    -2.661000000    -2.558000000
H    -3.697000000    -3.074000000    -3.415000000
H    -3.095000000    -3.300000000    -2.045000000
O    -0.309000000     4.459000000     0.662000000
H    -1.107000000     4.047000000     0.331000000
H    -0.398000000     5.381000000     0.420000000
O     4.566000000    -5.771000000     2.332000000
H     4.419000000    -4.827000000     2.403000000
H     4.307000000    -6.118000000     3.186000000
