158
-3074.44773
C     0.488000000    -0.777000000     1.108000000
H     1.045000000    -1.243000000     1.917000000
C     0.814000000     0.562000000     0.806000000
H     1.474000000     1.084000000     1.494000000
C     0.301000000     1.145000000    -0.327000000
H     0.376000000     2.236000000    -0.465000000
C    -0.657000000     0.489000000    -1.081000000
H    -1.146000000     0.971000000    -1.924000000
C    -0.983000000    -0.879000000    -0.787000000
H    -1.697000000    -1.297000000    -1.491000000
C    -0.349000000    -1.512000000     0.302000000
C    -0.750000000    -2.915000000     0.751000000
O    -0.473000000    -3.281000000     1.834000000
O    -1.375000000    -3.655000000     0.010000000
O     4.874000000    -3.604000000     2.476000000
H     5.364000000    -4.397000000     2.257000000
H     4.282000000    -3.476000000     1.735000000
O    -1.189000000     3.340000000     1.881000000
H    -0.697000000     2.581000000     2.193000000
H    -1.774000000     2.987000000     1.210000000
O     2.681000000    -4.270000000    -2.440000000
H     2.426000000    -3.416000000    -2.790000000
H     1.892000000    -4.596000000    -2.006000000
O    -3.321000000     5.266000000     1.425000000
H    -2.680000000     4.689000000     1.840000000
H    -2.910000000     5.525000000     0.600000000
O    -2.896000000     2.685000000    -0.205000000
H    -3.788000000     2.568000000     0.122000000
H    -2.993000000     2.726000000    -1.156000000
O     2.897000000     4.682000000     0.538000000
H     3.045000000     5.606000000     0.337000000
H     1.984000000     4.642000000     0.822000000
O    -5.995000000    -1.815000000    -2.644000000
H    -6.209000000    -2.728000000    -2.449000000
H    -5.768000000    -1.436000000    -1.795000000
O    -5.160000000    -0.826000000    -0.191000000
H    -5.468000000    -0.118000000     0.374000000
H    -4.492000000    -1.274000000     0.328000000
O    -2.410000000     3.399000000    -2.756000000
H    -1.564000000     3.190000000    -3.152000000
H    -3.008000000     2.738000000    -3.106000000
O    -3.286000000    -1.242000000    -4.079000000
H    -2.661000000    -1.891000000    -4.402000000
H    -3.557000000    -1.575000000    -3.223000000
O    -2.774000000    -3.782000000    -2.492000000
H    -2.317000000    -3.559000000    -1.681000000
H    -3.530000000    -4.295000000    -2.207000000
O    -2.765000000    -0.818000000    -6.703000000
H    -2.959000000    -0.851000000    -5.766000000
H    -2.785000000    -1.732000000    -6.984000000
O     1.988000000     1.010000000    -3.749000000
H     1.750000000     1.920000000    -3.575000000
H     1.174000000     0.601000000    -4.043000000
O     0.066000000    -5.276000000    -1.690000000
H    -0.479000000    -4.658000000    -1.202000000
H     0.152000000    -6.030000000    -1.107000000
O     4.357000000    -1.116000000     3.465000000
H     5.119000000    -0.547000000     3.355000000
H     4.669000000    -1.985000000     3.213000000
O     2.162000000    -1.571000000     4.732000000
H     1.901000000    -0.870000000     5.330000000
H     2.859000000    -1.185000000     4.201000000
O    -0.105000000     6.840000000    -3.840000000
H    -0.830000000     7.416000000    -3.598000000
H     0.679000000     7.309000000    -3.553000000
O    -2.847000000    -3.785000000     3.836000000
H    -2.307000000    -3.945000000     3.063000000
H    -2.218000000    -3.665000000     4.548000000
O    -0.742000000    -3.999000000     7.167000000
H    -0.687000000    -3.319000000     6.496000000
H    -0.634000000    -4.820000000     6.686000000
O     3.237000000    -3.495000000     0.347000000
H     3.521000000    -3.580000000    -0.563000000
H     2.739000000    -4.294000000     0.518000000
O    -0.537000000    -2.737000000     4.479000000
H    -0.383000000    -2.865000000     3.543000000
H     0.308000000    -2.450000000     4.825000000
O     2.410000000     4.068000000    -2.129000000
H     2.780000000     4.051000000    -1.246000000
H     3.071000000     4.517000000    -2.656000000
O     5.594000000     2.346000000    -1.424000000
H     5.854000000     1.668000000    -2.047000000
H     6.078000000     3.124000000    -1.699000000
O    -1.982000000     0.762000000     2.719000000
H    -2.830000000     0.685000000     3.156000000
H    -2.179000000     0.640000000     1.790000000
O     0.396000000    -5.548000000    -4.346000000
H     1.229000000    -5.974000000    -4.548000000
H     0.442000000    -5.364000000    -3.407000000
O     6.744000000     3.652000000     1.086000000
H     6.335000000     3.414000000     0.254000000
H     6.660000000     2.867000000     1.627000000
O     0.362000000     8.183000000    -1.574000000
H     0.940000000     7.621000000    -1.058000000
H    -0.510000000     8.026000000    -1.214000000
O     0.185000000    -5.882000000     2.514000000
H    -0.681000000    -6.232000000     2.724000000
H     0.022000000    -4.971000000     2.269000000
O     3.981000000     2.165000000     0.940000000
H     3.552000000     3.016000000     1.023000000
H     4.326000000     2.157000000     0.048000000
O     0.256000000     3.392000000    -6.433000000
H     1.179000000     3.359000000    -6.681000000
H     0.235000000     3.049000000    -5.540000000
O     0.254000000     3.880000000    -3.508000000
H     0.880000000     3.695000000    -2.808000000
H     0.353000000     4.817000000    -3.677000000
O    -0.088000000    -0.038000000    -4.918000000
H    -0.188000000    -0.239000000    -5.849000000
H    -0.532000000    -0.756000000    -4.468000000
O     3.049000000    -4.210000000     4.580000000
H     3.798000000    -3.903000000     4.069000000
H     2.439000000    -3.473000000     4.579000000
O    -4.835000000    -4.545000000    -0.899000000
H    -4.945000000    -4.040000000    -0.094000000
H    -5.032000000    -5.447000000    -0.645000000
O    -2.154000000    -7.857000000    -0.005000000
H    -2.609000000    -8.544000000     0.482000000
H    -2.528000000    -7.899000000    -0.885000000
O    -3.944000000     1.386000000    -3.715000000
H    -3.746000000     0.451000000    -3.758000000
H    -4.864000000     1.449000000    -3.973000000
O     0.195000000     5.308000000     0.819000000
H     0.363000000     5.907000000     1.547000000
H    -0.349000000     4.618000000     1.197000000
O    -3.716000000    -2.413000000     1.469000000
H    -3.646000000    -2.337000000     2.421000000
H    -2.914000000    -2.863000000     1.205000000
O     2.834000000     7.129000000    -0.443000000
H     3.442000000     7.697000000     0.029000000
H     3.229000000     7.021000000    -1.308000000
O    -1.159000000    -2.820000000    -4.736000000
H    -1.117000000    -3.480000000    -5.428000000
H    -1.266000000    -3.325000000    -3.930000000
O    -0.055000000     1.929000000     4.214000000
H    -0.579000000     1.277000000     3.749000000
H    -0.526000000     2.752000000     4.084000000
O     0.834000000    -7.636000000     0.383000000
H     0.789000000    -7.102000000     1.176000000
H    -0.009000000    -8.087000000     0.350000000
O    -2.756000000    -5.828000000     1.462000000
H    -2.608000000    -6.631000000     0.962000000
H    -2.488000000    -5.125000000     0.871000000
O     6.056000000     0.581000000     1.902000000
H     6.523000000     0.227000000     1.145000000
H     5.204000000     0.847000000     1.555000000
O    -1.776000000     6.236000000    -0.504000000
H    -1.774000000     5.625000000    -1.240000000
H    -0.963000000     6.050000000    -0.035000000
O     2.124000000    -1.665000000    -2.095000000
H     2.281000000    -0.846000000    -2.566000000
H     1.797000000    -1.389000000    -1.239000000
O     2.635000000     3.198000000     3.862000000
H     1.823000000     2.821000000     4.201000000
H     2.794000000     2.727000000     3.044000000
O     2.048000000    -6.789000000     4.643000000
H     1.394000000    -6.524000000     3.996000000
H     2.553000000    -5.993000000     4.811000000
