158
-3046.33446
C     1.158000000    -0.185000000     0.943000000
H     2.048000000    -0.399000000     1.530000000
C     1.209000000     0.180000000    -0.420000000
H     2.165000000     0.211000000    -0.937000000
C     0.069000000     0.351000000    -1.142000000
H     0.193000000     0.416000000    -2.195000000
C    -1.155000000     0.227000000    -0.537000000
H    -1.992000000     0.348000000    -1.219000000
C    -1.236000000    -0.075000000     0.806000000
H    -2.219000000    -0.122000000     1.267000000
C    -0.077000000    -0.391000000     1.545000000
C    -0.069000000    -0.908000000     2.888000000
O     1.013000000    -1.270000000     3.449000000
O    -1.092000000    -1.104000000     3.455000000
O     4.994000000    -2.479000000     5.210000000
H     5.912000000    -2.209000000     5.206000000
H     5.025000000    -3.435000000     5.220000000
O    -4.967000000     1.764000000    -2.739000000
H    -4.783000000     1.398000000    -1.874000000
H    -4.849000000     2.708000000    -2.630000000
O     2.927000000    -2.809000000    -0.104000000
H     2.455000000    -3.588000000     0.190000000
H     2.499000000    -2.565000000    -0.925000000
O    -6.050000000     2.724000000     1.759000000
H    -6.897000000     3.161000000     1.673000000
H    -5.664000000     2.776000000     0.885000000
O    -4.716000000    -3.852000000     4.870000000
H    -4.022000000    -3.934000000     5.524000000
H    -4.259000000    -3.897000000     4.030000000
O     0.537000000     2.248000000     3.397000000
H    -0.299000000     2.630000000     3.662000000
H     0.516000000     2.266000000     2.440000000
O     3.051000000     3.163000000     0.445000000
H     3.589000000     2.400000000     0.655000000
H     3.249000000     3.794000000     1.136000000
O    -3.357000000    -2.037000000     0.099000000
H    -3.844000000    -1.395000000    -0.417000000
H    -2.476000000    -2.027000000    -0.275000000
O    -1.275000000    -0.715000000    -7.714000000
H    -1.224000000    -1.423000000    -7.072000000
H    -0.668000000    -0.976000000    -8.406000000
O    -1.233000000     5.174000000     1.006000000
H    -0.680000000     4.436000000     0.751000000
H    -2.128000000     4.845000000     0.916000000
O    -1.960000000     3.921000000    -3.104000000
H    -1.137000000     4.392000000    -2.973000000
H    -1.781000000     3.324000000    -3.831000000
O    -0.266000000    -2.676000000    -3.569000000
H     0.232000000    -3.345000000    -3.100000000
H    -1.129000000    -2.685000000    -3.156000000
O    -0.259000000    -2.839000000    -0.553000000
H    -0.328000000    -3.227000000     0.319000000
H    -0.311000000    -1.895000000    -0.400000000
O     1.160000000    -0.316000000    -4.608000000
H     0.877000000    -1.114000000    -4.163000000
H     1.376000000    -0.600000000    -5.496000000
O    -2.854000000     3.349000000    -0.591000000
H    -2.465000000     3.538000000    -1.445000000
H    -3.482000000     4.058000000    -0.452000000
O     5.859000000     0.463000000     4.751000000
H     5.681000000     1.398000000     4.855000000
H     5.093000000     0.123000000     4.288000000
O    -0.293000000    -3.022000000     5.544000000
H     0.653000000    -3.132000000     5.444000000
H    -0.488000000    -2.207000000     5.082000000
O     3.664000000    -0.351000000     3.482000000
H     4.063000000    -1.131000000     3.095000000
H     2.759000000    -0.608000000     3.658000000
O     4.497000000    -2.863000000     2.269000000
H     5.442000000    -2.902000000     2.123000000
H     4.120000000    -2.825000000     1.390000000
O     1.253000000     4.960000000    -3.395000000
H     0.990000000     5.618000000    -2.752000000
H     0.877000000     5.268000000    -4.220000000
O    -2.350000000    -4.872000000     5.887000000
H    -1.857000000    -4.055000000     5.961000000
H    -2.055000000    -5.255000000     5.062000000
O     1.299000000     0.479000000     5.609000000
H     0.729000000    -0.196000000     5.240000000
H     1.573000000     0.999000000     4.853000000
O     4.191000000     4.210000000    -1.985000000
H     3.781000000     4.004000000    -1.144000000
H     3.485000000     4.115000000    -2.625000000
O     4.724000000     1.117000000     1.283000000
H     5.478000000     0.655000000     0.916000000
H     4.255000000     0.450000000     1.784000000
O    -5.315000000    -0.522000000     2.438000000
H    -4.641000000    -1.065000000     2.847000000
H    -5.661000000     0.010000000     3.155000000
O     5.682000000     0.959000000    -2.740000000
H     4.826000000     1.141000000    -3.128000000
H     5.498000000     0.345000000    -2.029000000
O    -2.604000000     0.701000000     4.913000000
H    -2.767000000     1.324000000     4.205000000
H    -2.237000000    -0.068000000     4.476000000
O     2.006000000    -1.154000000    -6.849000000
H     2.870000000    -1.313000000    -7.228000000
H     1.532000000    -1.975000000    -6.979000000
O     0.309000000     2.964000000     0.542000000
H     1.251000000     2.952000000     0.374000000
H    -0.005000000     2.126000000     0.201000000
O    -5.233000000     0.123000000     4.951000000
H    -4.318000000     0.361000000     5.101000000
H    -5.732000000     0.756000000     5.469000000
O    -0.362000000     5.523000000    -5.649000000
H    -1.111000000     4.929000000    -5.610000000
H    -0.741000000     6.395000000    -5.534000000
O    -0.925000000    -3.003000000    -6.259000000
H    -0.522000000    -3.869000000    -6.318000000
H    -0.811000000    -2.746000000    -5.344000000
O     1.796000000    -3.791000000     3.625000000
H     2.748000000    -3.774000000     3.524000000
H     1.528000000    -2.878000000     3.518000000
O     3.356000000     1.629000000    -7.066000000
H     2.550000000     1.134000000    -6.923000000
H     3.595000000     1.953000000    -6.197000000
O     2.996000000     3.652000000    -4.839000000
H     3.739000000     4.244000000    -4.723000000
H     2.285000000     4.061000000    -4.347000000
O     3.417000000     1.138000000    -3.935000000
H     2.611000000     0.696000000    -4.203000000
H     3.217000000     2.071000000    -4.018000000
O     2.834000000    -1.426000000     6.746000000
H     3.594000000    -1.399000000     6.165000000
H     2.254000000    -0.741000000     6.413000000
O    -0.998000000     1.901000000    -4.703000000
H    -0.369000000     1.311000000    -4.289000000
H    -0.646000000     2.050000000    -5.580000000
O    -3.378000000    -2.563000000     2.790000000
H    -3.498000000    -2.421000000     1.851000000
H    -2.542000000    -2.142000000     2.992000000
O    -3.037000000    -2.824000000    -2.998000000
H    -3.226000000    -3.296000000    -2.188000000
H    -3.894000000    -2.682000000    -3.400000000
O    -3.036000000     2.347000000     2.718000000
H    -3.054000000     2.484000000     1.771000000
H    -3.901000000     2.627000000     3.017000000
O    -1.440000000     2.492000000     6.804000000
H    -1.695000000     1.852000000     6.140000000
H    -0.921000000     1.991000000     7.433000000
O     4.729000000    -0.934000000    -1.087000000
H     5.472000000    -1.534000000    -1.155000000
H     4.000000000    -1.488000000    -0.809000000
O    -0.646000000    -3.962000000     1.774000000
H    -1.197000000    -3.907000000     2.554000000
H     0.250000000    -3.956000000     2.112000000
O    -5.387000000     0.493000000    -0.243000000
H    -4.964000000     0.264000000     0.584000000
H    -6.225000000     0.878000000     0.015000000
O     3.990000000    -1.817000000    -3.663000000
H     3.585000000    -1.200000000    -4.273000000
H     4.338000000    -1.267000000    -2.961000000
O     2.889000000     4.170000000     4.013000000
H     2.305000000     3.428000000     3.853000000
H     2.820000000     4.704000000     3.222000000
O    -3.737000000     0.782000000    -4.997000000
H    -4.307000000     1.141000000    -4.317000000
H    -2.850000000     0.964000000    -4.687000000
