158
-3014.80134
C     1.217000000    -0.594000000     0.492000000
H     2.219000000    -0.829000000     0.842000000
C     1.089000000     0.117000000    -0.679000000
H     1.935000000     0.485000000    -1.255000000
C    -0.142000000     0.679000000    -1.058000000
H    -0.253000000     1.251000000    -1.957000000
C    -1.283000000     0.295000000    -0.304000000
H    -2.286000000     0.606000000    -0.584000000
C    -1.139000000    -0.547000000     0.833000000
H    -2.002000000    -0.894000000     1.395000000
C     0.118000000    -0.938000000     1.273000000
C     0.298000000    -1.564000000     2.597000000
O     1.318000000    -1.360000000     3.204000000
O    -0.596000000    -2.076000000     3.258000000
O    -3.612000000    -1.505000000    -1.982000000
H    -3.185000000    -1.043000000    -1.260000000
H    -3.034000000    -1.362000000    -2.732000000
O    -4.469000000    -3.865000000     5.421000000
H    -4.063000000    -4.353000000     6.137000000
H    -3.842000000    -3.929000000     4.701000000
O    -0.730000000     2.962000000     4.922000000
H    -1.326000000     2.784000000     4.195000000
H    -0.280000000     2.131000000     5.073000000
O     3.003000000     3.120000000     0.752000000
H     3.513000000     2.526000000     0.201000000
H     3.653000000     3.708000000     1.136000000
O    -4.090000000    -3.758000000     1.050000000
H    -4.725000000    -3.413000000     0.422000000
H    -3.568000000    -4.380000000     0.545000000
O    -1.595000000    -1.780000000    -6.195000000
H    -1.043000000    -2.452000000    -5.795000000
H    -1.351000000    -1.789000000    -7.120000000
O    -1.116000000     5.017000000     0.130000000
H    -0.713000000     4.269000000     0.571000000
H    -1.561000000     4.637000000    -0.627000000
O    -3.030000000     4.584000000    -1.930000000
H    -3.640000000     5.224000000    -2.296000000
H    -3.026000000     3.867000000    -2.564000000
O     0.014000000    -2.498000000    -2.181000000
H     0.955000000    -2.336000000    -2.117000000
H    -0.369000000    -1.961000000    -1.486000000
O    -0.353000000    -4.847000000     1.429000000
H    -0.329000000    -4.277000000     2.197000000
H    -1.268000000    -4.834000000     1.149000000
O    -1.776000000    -0.517000000    -3.804000000
H    -1.813000000    -0.626000000    -4.754000000
H    -0.845000000    -0.405000000    -3.611000000
O    -4.715000000     2.081000000    -1.133000000
H    -5.373000000     2.571000000    -1.627000000
H    -4.013000000     2.713000000    -0.976000000
O     6.077000000     2.485000000    -0.559000000
H     5.634000000     1.729000000    -0.174000000
H     6.954000000     2.166000000    -0.772000000
O     3.143000000     5.920000000    -5.173000000
H     2.924000000     6.025000000    -6.099000000
H     2.640000000     5.155000000    -4.893000000
O     5.225000000     1.709000000     4.967000000
H     5.048000000     2.577000000     4.604000000
H     4.762000000     1.106000000     4.385000000
O    -0.678000000    -3.616000000     5.527000000
H     0.239000000    -3.851000000     5.380000000
H    -0.898000000    -3.041000000     4.795000000
O     3.845000000    -0.449000000     3.642000000
H     4.412000000    -1.219000000     3.623000000
H     2.972000000    -0.789000000     3.446000000
O     5.472000000    -2.462000000     3.980000000
H     6.429000000    -2.479000000     3.966000000
H     5.231000000    -3.085000000     4.666000000
O     0.404000000     7.316000000    -4.025000000
H     0.559000000     6.833000000    -3.214000000
H    -0.001000000     6.677000000    -4.611000000
O     0.951000000     4.088000000    -6.120000000
H     0.536000000     4.916000000    -6.362000000
H     0.219000000     3.488000000    -5.973000000
O    -3.545000000     1.819000000    -7.301000000
H    -4.342000000     1.625000000    -6.808000000
H    -2.891000000     2.017000000    -6.631000000
O    -2.304000000    -5.867000000     6.493000000
H    -1.890000000    -5.129000000     6.045000000
H    -1.706000000    -6.601000000     6.348000000
O     1.566000000     0.349000000     5.449000000
H     1.149000000    -0.220000000     4.803000000
H     2.170000000     0.889000000     4.939000000
O     2.329000000     6.392000000    -1.182000000
H     1.789000000     5.635000000    -1.408000000
H     2.772000000     6.623000000    -1.998000000
O     4.809000000     0.421000000     0.501000000
H     4.702000000    -0.490000000     0.228000000
H     4.512000000     0.435000000     1.410000000
O     2.317000000    -6.478000000     4.574000000
H     2.506000000    -5.561000000     4.377000000
H     2.246000000    -6.509000000     5.528000000
O    -4.286000000     0.630000000     1.161000000
H    -5.082000000     0.100000000     1.111000000
H    -4.210000000     1.030000000     0.295000000
O    -1.832000000    -0.010000000     4.743000000
H    -2.101000000     0.635000000     4.089000000
H    -1.225000000    -0.585000000     4.277000000
O     0.198000000     2.949000000     1.279000000
H     1.115000000     2.677000000     1.257000000
H    -0.293000000     2.132000000     1.366000000
O    -0.521000000     1.889000000    -5.540000000
H     0.206000000     1.435000000    -5.114000000
H    -0.602000000     1.464000000    -6.394000000
O    -3.403000000     0.029000000     6.919000000
H    -2.883000000     0.026000000     6.114000000
H    -3.692000000     0.937000000     7.013000000
O     0.051000000    -3.598000000    -4.796000000
H    -0.061000000    -3.254000000    -3.910000000
H    -0.068000000    -4.544000000    -4.703000000
O     2.376000000    -3.544000000     4.243000000
H     2.939000000    -3.804000000     3.514000000
H     1.900000000    -2.780000000     3.918000000
O     2.703000000    -2.095000000    -2.183000000
H     2.892000000    -2.546000000    -1.360000000
H     3.501000000    -1.601000000    -2.374000000
O     0.907000000    -0.494000000    -4.096000000
H     0.936000000    -0.854000000    -4.982000000
H     1.364000000    -1.142000000    -3.559000000
O     4.965000000     2.153000000    -4.169000000
H     4.555000000     2.818000000    -4.722000000
H     5.051000000     2.572000000    -3.313000000
O     4.775000000    -0.676000000    -4.003000000
H     5.696000000    -0.884000000    -4.156000000
H     4.736000000     0.280000000    -4.041000000
O     3.915000000    -1.097000000     6.720000000
H     4.281000000    -1.739000000     6.111000000
H     3.111000000    -0.796000000     6.296000000
O    -2.837000000     2.395000000    -3.869000000
H    -2.927000000     1.461000000    -3.677000000
H    -1.931000000     2.493000000    -4.161000000
O    -2.671000000    -3.796000000     3.423000000
H    -3.120000000    -3.870000000     2.581000000
H    -2.041000000    -3.086000000     3.298000000
O    -2.140000000     1.779000000     2.756000000
H    -2.678000000     1.169000000     2.251000000
H    -2.653000000     2.586000000     2.782000000
O     2.315000000    -4.684000000     1.515000000
H     1.379000000    -4.487000000     1.474000000
H     2.396000000    -5.548000000     1.111000000
O    -2.840000000    -6.521000000     2.778000000
H    -2.581000000    -5.930000000     3.485000000
H    -2.920000000    -7.377000000     3.199000000
O     1.831000000    -3.362000000     7.965000000
H     0.965000000    -2.993000000     8.138000000
H     1.975000000    -3.208000000     7.031000000
O    -6.528000000    -0.627000000     0.870000000
H    -6.921000000    -1.087000000     1.612000000
H    -7.266000000    -0.425000000     0.295000000
O     3.313000000     2.897000000    -6.762000000
H     3.141000000     2.364000000    -7.538000000
H     2.446000000     3.175000000    -6.465000000
O     3.827000000    -3.035000000    -0.014000000
H     4.675000000    -2.942000000     0.421000000
H     3.293000000    -3.531000000     0.606000000
O    -6.443000000    -0.805000000    -3.342000000
H    -5.705000000    -1.366000000    -3.105000000
H    -6.743000000    -0.439000000    -2.510000000
