158
-3032.90792
C     0.782000000    -0.787000000     0.984000000
H     1.297000000    -1.298000000     1.793000000
C     1.376000000    -0.046000000    -0.048000000
H     2.456000000     0.049000000    -0.130000000
C     0.541000000     0.671000000    -0.903000000
H     1.011000000     1.274000000    -1.635000000
C    -0.818000000     0.634000000    -0.687000000
H    -1.421000000     1.202000000    -1.392000000
C    -1.418000000    -0.097000000     0.332000000
H    -2.504000000    -0.090000000     0.355000000
C    -0.590000000    -0.863000000     1.191000000
C    -1.295000000    -1.774000000     2.215000000
O    -0.616000000    -2.481000000     2.921000000
O    -2.545000000    -1.851000000     2.258000000
O    -4.093000000    -7.088000000     2.311000000
H    -3.255000000    -7.400000000     1.969000000
H    -3.944000000    -6.162000000     2.501000000
O     3.718000000    -2.742000000     2.359000000
H     3.029000000    -2.844000000     1.703000000
H     4.524000000    -2.658000000     1.850000000
O    -6.598000000    -0.610000000     4.367000000
H    -7.315000000    -0.806000000     3.764000000
H    -6.299000000    -1.467000000     4.670000000
O    -4.125000000     1.598000000     2.267000000
H    -3.826000000     2.430000000     1.900000000
H    -4.639000000     1.197000000     1.567000000
O     2.321000000     4.647000000     1.821000000
H     2.804000000     5.468000000     1.728000000
H     1.940000000     4.692000000     2.698000000
O    -5.871000000    -1.792000000    -0.040000000
H    -5.671000000    -0.933000000     0.334000000
H    -6.268000000    -1.597000000    -0.888000000
O    -1.548000000     4.720000000    -1.235000000
H    -0.638000000     4.885000000    -0.988000000
H    -1.494000000     4.370000000    -2.124000000
O    -0.725000000    -1.848000000    -3.052000000
H    -0.597000000    -1.150000000    -2.410000000
H    -0.421000000    -1.473000000    -3.878000000
O    -1.110000000    -3.759000000    -1.213000000
H    -1.888000000    -3.312000000    -0.881000000
H    -0.702000000    -3.123000000    -1.801000000
O    -5.001000000     2.290000000    -4.107000000
H    -5.195000000     2.267000000    -5.044000000
H    -4.051000000     2.399000000    -4.061000000
O     4.244000000     2.517000000     0.739000000
H     4.807000000     2.283000000     1.477000000
H     3.814000000     3.327000000     1.013000000
O    -3.379000000     3.583000000     0.502000000
H    -2.758000000     3.900000000    -0.154000000
H    -4.025000000     4.285000000     0.579000000
O     6.002000000    -2.310000000     0.966000000
H     6.140000000    -1.447000000     0.575000000
H     6.865000000    -2.723000000     0.945000000
O    -6.997000000    -3.630000000     1.756000000
H    -6.492000000    -3.256000000     2.478000000
H    -6.942000000    -2.975000000     1.061000000
O     2.067000000     1.529000000     3.069000000
H     2.472000000     1.522000000     2.202000000
H     2.462000000     0.784000000     3.523000000
O    -3.011000000    -1.951000000     5.797000000
H    -2.434000000    -2.501000000     5.267000000
H    -2.742000000    -1.055000000     5.593000000
O     4.183000000    -2.145000000    -2.190000000
H     4.353000000    -2.713000000    -2.942000000
H     5.049000000    -1.969000000    -1.822000000
O     3.424000000    -0.981000000     4.564000000
H     3.485000000    -1.769000000     4.024000000
H     2.612000000    -1.091000000     5.058000000
O     1.570000000     4.026000000    -5.878000000
H     0.785000000     4.566000000    -5.967000000
H     1.254000000     3.203000000    -5.505000000
O    -2.998000000    -4.669000000     2.611000000
H    -2.772000000    -3.819000000     2.234000000
H    -2.379000000    -4.783000000     3.333000000
O    -1.786000000     0.714000000     5.032000000
H    -2.688000000     1.033000000     5.055000000
H    -1.382000000     1.188000000     4.305000000
O     1.243000000     7.351000000    -2.450000000
H     1.633000000     7.205000000    -3.312000000
H     1.072000000     6.472000000    -2.112000000
O     5.156000000     0.560000000     2.977000000
H     4.669000000    -0.096000000     3.475000000
H     6.031000000     0.185000000     2.880000000
O    -5.760000000     2.744000000    -1.425000000
H    -4.994000000     3.313000000    -1.346000000
H    -5.808000000     2.536000000    -2.359000000
O    -5.117000000    -2.801000000     3.944000000
H    -4.501000000    -2.537000000     4.627000000
H    -4.659000000    -2.616000000     3.124000000
O    -1.284000000     1.626000000    -5.355000000
H    -1.133000000     1.649000000    -6.300000000
H    -0.556000000     1.112000000    -5.008000000
O    -0.754000000     2.073000000     2.819000000
H     0.139000000     1.743000000     2.925000000
H    -1.015000000     1.781000000     1.946000000
O     0.732000000     0.211000000    -4.665000000
H     1.057000000    -0.070000000    -5.521000000
H     1.491000000     0.140000000    -4.086000000
O     3.028000000    -5.708000000     0.519000000
H     3.191000000    -6.371000000     1.190000000
H     2.224000000    -5.274000000     0.803000000
O     1.526000000     5.141000000    -1.073000000
H     2.066000000     4.393000000    -1.330000000
H     1.656000000     5.217000000    -0.128000000
O    -4.649000000     0.972000000     5.171000000
H    -4.558000000     1.435000000     4.339000000
H    -5.233000000     0.239000000     4.975000000
O    -1.567000000    -4.316000000     5.172000000
H    -1.101000000    -4.956000000     5.710000000
H    -0.930000000    -4.051000000     4.508000000
O     6.031000000     1.932000000    -1.203000000
H     5.568000000     2.383000000    -1.909000000
H     5.508000000     2.108000000    -0.421000000
O    -0.481000000    -6.806000000     3.766000000
H    -0.297000000    -7.457000000     3.089000000
H    -0.854000000    -7.311000000     4.489000000
O     0.321000000    -1.015000000     4.977000000
H    -0.471000000    -0.482000000     5.035000000
H     0.143000000    -1.633000000     4.268000000
O     4.646000000    -4.743000000     4.163000000
H     5.092000000    -5.357000000     3.580000000
H     4.115000000    -4.202000000     3.578000000
O    -5.212000000    -3.724000000    -2.462000000
H    -4.501000000    -3.381000000    -1.922000000
H    -4.991000000    -4.646000000    -2.592000000
O    -1.649000000     3.695000000    -3.558000000
H    -1.343000000     2.958000000    -4.087000000
H    -1.761000000     4.409000000    -4.186000000
O    -3.464000000    -2.795000000    -0.054000000
H    -4.397000000    -2.604000000    -0.151000000
H    -3.217000000    -2.372000000     0.768000000
O     3.478000000    -1.222000000    -5.709000000
H     3.351000000    -0.539000000    -5.050000000
H     2.670000000    -1.214000000    -6.222000000
O    -6.082000000     0.843000000     0.300000000
H    -6.058000000     1.529000000    -0.368000000
H    -7.007000000     0.606000000     0.366000000
O     0.889000000    -3.928000000     1.078000000
H     0.259000000    -3.749000000     0.380000000
H     0.424000000    -3.705000000     1.884000000
O     6.546000000    -0.642000000    -1.275000000
H     7.308000000    -0.716000000    -1.849000000
H     6.481000000     0.294000000    -1.082000000
O    -2.675000000    -6.344000000    -0.210000000
H    -2.633000000    -5.425000000     0.053000000
H    -3.303000000    -6.358000000    -0.932000000
O     3.231000000     0.248000000    -3.336000000
H     3.404000000     1.064000000    -2.867000000
H     3.766000000    -0.405000000    -2.884000000
O     4.500000000     3.238000000    -2.992000000
H     4.769000000     4.149000000    -2.871000000
H     4.842000000     2.999000000    -3.853000000
O     1.673000000    -4.408000000    -2.201000000
H     1.629000000    -4.855000000    -1.356000000
H     1.988000000    -3.528000000    -1.991000000
O    -3.666000000    -0.066000000    -5.957000000
H    -3.370000000    -0.749000000    -6.559000000
H    -2.867000000     0.396000000    -5.706000000
