158
-3058.22520
C     1.230000000    -0.709000000     0.542000000
H     2.207000000    -1.162000000     0.692000000
C     1.174000000    -0.075000000    -0.693000000
H     1.978000000    -0.077000000    -1.424000000
C    -0.043000000     0.612000000    -1.026000000
H    -0.195000000     1.206000000    -1.964000000
C    -1.138000000     0.580000000    -0.206000000
H    -2.052000000     1.124000000    -0.433000000
C    -1.034000000    -0.053000000     1.072000000
H    -1.925000000     0.016000000     1.691000000
C     0.132000000    -0.744000000     1.407000000
C     0.181000000    -1.548000000     2.663000000
O     1.156000000    -2.236000000     2.885000000
O    -0.865000000    -1.635000000     3.400000000
O     2.483000000    -4.436000000     2.081000000
H     3.311000000    -3.956000000     2.101000000
H     1.813000000    -3.764000000     2.202000000
O     5.437000000    -3.682000000     2.888000000
H     6.247000000    -3.262000000     2.598000000
H     5.308000000    -3.363000000     3.781000000
O    -5.179000000     0.646000000    -1.506000000
H    -5.400000000     1.316000000    -0.859000000
H    -4.710000000     1.121000000    -2.192000000
O    -1.603000000     1.445000000     6.874000000
H    -1.984000000     1.209000000     6.028000000
H    -1.171000000     0.645000000     7.174000000
O     2.704000000     4.639000000     0.804000000
H     3.605000000     4.658000000     1.126000000
H     2.731000000     4.043000000     0.055000000
O    -1.605000000     4.095000000     0.417000000
H    -1.177000000     3.863000000    -0.407000000
H    -1.721000000     5.044000000     0.368000000
O    -3.041000000    -1.980000000     7.002000000
H    -3.409000000    -2.563000000     6.337000000
H    -2.096000000    -2.014000000     6.852000000
O    -2.891000000     5.743000000    -2.080000000
H    -2.369000000     6.502000000    -1.818000000
H    -3.673000000     5.789000000    -1.530000000
O     4.683000000     1.713000000     0.559000000
H     3.890000000     1.950000000     0.077000000
H     4.989000000     0.911000000     0.137000000
O    -0.033000000    -2.346000000    -4.217000000
H    -0.738000000    -2.643000000    -3.642000000
H     0.726000000    -2.865000000    -3.954000000
O     2.921000000    -2.066000000    -2.831000000
H     3.627000000    -2.332000000    -3.420000000
H     2.862000000    -2.775000000    -2.191000000
O    -2.802000000    -1.039000000    -3.492000000
H    -2.815000000    -0.715000000    -4.393000000
H    -2.244000000    -0.420000000    -3.022000000
O    -1.593000000     1.962000000    -4.640000000
H    -1.473000000     2.905000000    -4.531000000
H    -1.187000000     1.764000000    -5.484000000
O     2.458000000     2.736000000    -1.102000000
H     1.507000000     2.748000000    -1.209000000
H     2.788000000     2.393000000    -1.933000000
O    -6.112000000     1.555000000     1.842000000
H    -5.500000000     1.878000000     1.180000000
H    -5.583000000     0.983000000     2.398000000
O    -0.331000000    -1.268000000     6.512000000
H    -0.373000000    -1.464000000     5.576000000
H     0.191000000    -0.468000000     6.566000000
O     5.429000000    -2.970000000    -0.809000000
H     5.574000000    -2.087000000    -1.150000000
H     6.060000000    -3.056000000    -0.093000000
O     1.935000000    -6.879000000     0.852000000
H     1.991000000    -5.964000000     1.128000000
H     2.358000000    -6.897000000    -0.006000000
O     0.889000000     0.259000000    -4.510000000
H    -0.012000000     0.545000000    -4.660000000
H     0.813000000    -0.672000000    -4.304000000
O     1.056000000     6.239000000    -0.750000000
H     1.546000000     5.558000000    -0.290000000
H     0.567000000     6.690000000    -0.062000000
O    -3.792000000    -1.852000000    -0.634000000
H    -4.047000000    -1.049000000    -1.089000000
H    -4.408000000    -1.919000000     0.096000000
O    -1.138000000    -2.515000000    -1.087000000
H    -2.028000000    -2.207000000    -0.920000000
H    -0.586000000    -1.748000000    -0.932000000
O    -0.903000000     2.608000000     3.899000000
H    -0.080000000     2.193000000     4.160000000
H    -0.637000000     3.328000000     3.327000000
O    -0.513000000     0.991000000    -6.922000000
H    -0.093000000     0.156000000    -7.127000000
H    -0.489000000     1.480000000    -7.745000000
O    -4.028000000     1.972000000    -3.550000000
H    -3.139000000     2.076000000    -3.889000000
H    -4.543000000     1.699000000    -4.309000000
O    -2.354000000     0.397000000     4.350000000
H    -1.859000000     1.182000000     4.115000000
H    -1.795000000    -0.330000000     4.075000000
O     1.825000000     0.427000000     6.714000000
H     1.654000000     1.362000000     6.601000000
H     2.457000000     0.214000000     6.026000000
O     1.586000000     4.512000000    -5.189000000
H     1.105000000     4.696000000    -5.996000000
H     2.144000000     5.279000000    -5.061000000
O     2.999000000    -4.402000000    -1.151000000
H     3.340000000    -5.293000000    -1.082000000
H     3.674000000    -3.855000000    -0.749000000
O    -1.186000000     4.499000000    -4.074000000
H    -1.713000000     5.125000000    -3.578000000
H    -0.714000000     5.035000000    -4.712000000
O    -5.415000000    -2.212000000     1.966000000
H    -5.228000000    -1.548000000     2.630000000
H    -5.227000000    -3.044000000     2.401000000
O     0.728000000     3.260000000     1.979000000
H    -0.076000000     3.302000000     1.460000000
H     1.220000000     4.039000000     1.720000000
O     1.653000000     1.947000000     3.988000000
H     1.689000000     2.506000000     3.211000000
H     2.289000000     1.254000000     3.814000000
O     1.595000000    -3.975000000     4.855000000
H     2.089000000    -4.620000000     4.348000000
H     1.360000000    -3.299000000     4.219000000
O     4.750000000    -2.161000000     5.156000000
H     4.261000000    -2.601000000     5.852000000
H     5.218000000    -1.455000000     5.601000000
O    -1.435000000    -5.780000000     5.063000000
H    -1.188000000    -6.660000000     5.346000000
H    -1.321000000    -5.793000000     4.112000000
O     2.478000000     2.395000000    -4.015000000
H     1.868000000     1.714000000    -4.298000000
H     2.122000000     3.204000000    -4.383000000
O    -3.671000000    -4.063000000     5.226000000
H    -2.868000000    -4.579000000     5.287000000
H    -4.211000000    -4.372000000     5.953000000
O    -2.608000000    -3.685000000     2.888000000
H    -3.013000000    -3.726000000     3.754000000
H    -1.996000000    -2.951000000     2.944000000
O     0.196000000    -3.765000000     7.295000000
H     0.640000000    -4.047000000     6.495000000
H    -0.113000000    -2.880000000     7.099000000
O    -4.895000000    -0.055000000     3.786000000
H    -3.948000000     0.053000000     3.700000000
H    -5.050000000    -0.065000000     4.731000000
O    -4.130000000     2.833000000     0.331000000
H    -3.204000000     2.652000000     0.490000000
H    -4.130000000     3.625000000    -0.206000000
O     2.898000000    -0.437000000     4.119000000
H     2.436000000    -0.956000000     3.460000000
H     3.674000000    -0.956000000     4.331000000
O    -4.533000000     2.801000000     4.877000000
H    -4.462000000     3.737000000     4.686000000
H    -3.933000000     2.385000000     4.258000000
O    -1.479000000    -4.816000000     0.808000000
H    -0.953000000    -4.167000000     0.341000000
H    -1.925000000    -4.316000000     1.491000000
O     4.686000000    -0.280000000    -1.987000000
H     4.992000000     0.232000000    -2.737000000
H     3.981000000    -0.823000000    -2.339000000
O     0.021000000     3.990000000    -1.828000000
H    -0.337000000     4.024000000    -2.715000000
H     0.441000000     4.841000000    -1.706000000
O     3.427000000    -3.463000000     7.065000000
H     3.037000000    -3.654000000     7.918000000
H     2.693000000    -3.498000000     6.453000000
