158
-3054.43756
C     1.295000000    -0.705000000     0.147000000
H     2.284000000    -1.155000000     0.139000000
C     0.826000000    -0.111000000    -0.993000000
H     1.265000000    -0.185000000    -1.985000000
C    -0.404000000     0.539000000    -1.012000000
H    -0.779000000     0.965000000    -1.919000000
C    -1.147000000     0.674000000     0.171000000
H    -2.040000000     1.281000000     0.292000000
C    -0.659000000     0.079000000     1.292000000
H    -1.197000000     0.259000000     2.219000000
C     0.561000000    -0.586000000     1.327000000
C     0.982000000    -1.377000000     2.575000000
O     1.934000000    -2.189000000     2.539000000
O     0.295000000    -1.378000000     3.532000000
O     4.015000000    -3.888000000     1.440000000
H     4.556000000    -3.260000000     0.960000000
H     3.249000000    -3.384000000     1.714000000
O    -4.673000000     1.908000000    -0.099000000
H    -4.008000000     2.431000000     0.350000000
H    -4.415000000     1.932000000    -1.020000000
O    -1.788000000     6.113000000    -0.393000000
H    -1.192000000     5.849000000    -1.094000000
H    -2.032000000     7.012000000    -0.612000000
O    -1.648000000    -1.181000000     7.508000000
H    -1.603000000    -0.247000000     7.715000000
H    -0.860000000    -1.350000000     6.992000000
O     3.794000000     2.000000000     1.497000000
H     3.635000000     1.109000000     1.809000000
H     3.699000000     1.940000000     0.546000000
O     3.206000000     2.464000000    -1.167000000
H     2.895000000     3.050000000    -1.857000000
H     3.926000000     1.980000000    -1.570000000
O     0.354000000    -2.590000000    -3.397000000
H    -0.182000000    -2.608000000    -2.604000000
H     0.814000000    -3.429000000    -3.394000000
O     3.655000000    -2.540000000    -4.816000000
H     2.788000000    -2.947000000    -4.834000000
H     4.211000000    -3.181000000    -4.373000000
O    -0.476000000    -0.960000000    -5.769000000
H     0.085000000    -1.666000000    -5.449000000
H    -1.280000000    -1.042000000    -5.255000000
O    -2.228000000    -0.426000000    -3.685000000
H    -3.100000000    -0.034000000    -3.655000000
H    -1.652000000     0.241000000    -3.311000000
O    -2.685000000     3.368000000    -2.087000000
H    -1.902000000     3.319000000    -1.540000000
H    -2.605000000     4.204000000    -2.545000000
O    -6.104000000    -0.830000000    -2.229000000
H    -5.375000000    -0.788000000    -1.610000000
H    -6.465000000     0.056000000    -2.235000000
O     2.402000000    -6.157000000     2.267000000
H     3.082000000    -5.609000000     2.660000000
H     2.884000000    -6.796000000     1.742000000
O     1.123000000     3.693000000    -3.581000000
H     0.481000000     3.040000000    -3.858000000
H     1.578000000     3.940000000    -4.386000000
O    -2.763000000     3.296000000     3.517000000
H    -2.891000000     3.665000000     2.643000000
H    -1.817000000     3.163000000     3.584000000
O     0.568000000    -1.501000000     6.074000000
H     0.473000000    -1.408000000     5.126000000
H     1.109000000    -0.755000000     6.334000000
O     5.757000000    -1.266000000     0.665000000
H     6.678000000    -1.196000000     0.915000000
H     5.286000000    -0.789000000     1.349000000
O     0.455000000    -4.251000000     1.267000000
H     0.900000000    -3.547000000     1.740000000
H     0.964000000    -5.035000000     1.471000000
O     2.730000000     0.221000000    -4.973000000
H     2.268000000     0.256000000    -5.811000000
H     3.157000000    -0.635000000    -4.970000000
O    -4.492000000    -0.293000000     1.453000000
H    -4.601000000     0.583000000     1.082000000
H    -4.585000000    -0.167000000     2.397000000
O    -3.314000000    -1.788000000    -0.540000000
H    -3.868000000    -1.387000000     0.129000000
H    -2.701000000    -1.096000000    -0.790000000
O    -2.088000000    -5.107000000     1.741000000
H    -1.259000000    -4.657000000     1.577000000
H    -2.730000000    -4.401000000     1.825000000
O    -0.812000000     5.514000000     2.198000000
H    -0.411000000     4.709000000     1.872000000
H    -1.249000000     5.891000000     1.435000000
O     0.797000000     0.798000000    -7.383000000
H     0.408000000     0.298000000    -6.666000000
H     0.152000000     0.747000000    -8.088000000
O    -4.215000000     1.498000000    -3.135000000
H    -3.625000000     2.222000000    -2.921000000
H    -4.983000000     1.921000000    -3.519000000
O    -1.032000000     1.012000000     4.472000000
H    -0.301000000     1.536000000     4.146000000
H    -0.781000000     0.107000000     4.285000000
O     1.739000000     1.317000000     6.190000000
H     1.170000000     1.869000000     6.726000000
H     1.868000000     1.816000000     5.384000000
O     7.200000000    -1.823000000    -1.675000000
H     6.658000000    -2.356000000    -2.257000000
H     6.598000000    -1.524000000    -0.994000000
O    -3.857000000    -1.207000000     5.512000000
H    -3.007000000    -1.200000000     5.072000000
H    -3.659000000    -1.468000000     6.412000000
O     0.719000000     3.333000000     1.080000000
H     0.585000000     2.467000000     0.696000000
H     1.462000000     3.696000000     0.598000000
O     0.911000000     2.754000000     3.892000000
H     1.051000000     2.995000000     2.976000000
H     0.576000000     3.552000000     4.301000000
O     2.735000000    -3.553000000     4.787000000
H     2.321000000    -3.078000000     5.508000000
H     2.262000000    -3.264000000     4.007000000
O     3.587000000    -0.535000000     7.124000000
H     2.883000000     0.088000000     6.943000000
H     3.916000000    -0.782000000     6.260000000
O    -0.505000000    -4.248000000    -1.102000000
H     0.283000000    -4.480000000    -1.595000000
H    -0.179000000    -3.980000000    -0.243000000
O     3.990000000    -5.765000000    -0.822000000
H     3.903000000    -5.075000000    -0.165000000
H     4.165000000    -6.558000000    -0.315000000
O     6.360000000    -3.546000000     2.952000000
H     5.459000000    -3.619000000     2.638000000
H     6.534000000    -4.384000000     3.380000000
O    -0.727000000     2.027000000    -4.505000000
H    -1.306000000     2.515000000    -5.090000000
H    -0.708000000     1.142000000    -4.869000000
O    -2.006000000    -2.522000000     4.119000000
H    -1.807000000    -3.007000000     4.920000000
H    -1.169000000    -2.136000000     3.859000000
O     0.629000000    -4.204000000     7.584000000
H     0.815000000    -3.337000000     7.224000000
H    -0.064000000    -4.553000000     7.024000000
O    -3.335000000     4.245000000     0.826000000
H    -2.773000000     4.727000000     0.219000000
H    -4.153000000     4.741000000     0.841000000
O     3.980000000    -0.692000000     3.024000000
H     3.262000000    -1.284000000     2.798000000
H     4.234000000    -0.951000000     3.910000000
O    -2.040000000     1.580000000     6.997000000
H    -1.816000000     1.252000000     6.126000000
H    -1.650000000     2.454000000     7.031000000
O    -4.130000000    -3.666000000     2.661000000
H    -3.518000000    -3.179000000     3.212000000
H    -4.953000000    -3.655000000     3.149000000
O     5.175000000     1.486000000    -4.768000000
H     4.237000000     1.329000000    -4.869000000
H     5.590000000     0.712000000    -5.150000000
O     5.471000000     0.938000000    -1.966000000
H     5.267000000     1.043000000    -2.896000000
H     6.040000000     0.169000000    -1.932000000
O    -0.871000000     5.521000000    -2.925000000
H    -1.020000000     6.267000000    -3.507000000
H     0.001000000     5.205000000    -3.160000000
O    -3.763000000    -1.436000000    -6.307000000
H    -4.214000000    -1.590000000    -5.477000000
H    -3.027000000    -2.047000000    -6.296000000
O    -4.623000000     0.919000000     3.851000000
H    -3.899000000     1.545000000     3.875000000
H    -4.374000000     0.240000000     4.478000000
