158
-3025.76810
C    -1.474000000     0.374000000     0.374000000
H    -2.385000000     0.763000000     0.821000000
C    -0.326000000     0.433000000     1.229000000
H    -0.451000000     0.616000000     2.293000000
C     0.952000000     0.147000000     0.731000000
H     1.784000000     0.296000000     1.381000000
C     1.181000000    -0.198000000    -0.578000000
H     2.183000000    -0.377000000    -0.958000000
C     0.028000000    -0.484000000    -1.338000000
H     0.266000000    -0.503000000    -2.399000000
C    -1.293000000    -0.128000000    -0.933000000
C    -2.410000000    -0.229000000    -1.905000000
O    -2.183000000    -0.592000000    -3.037000000
O    -3.516000000     0.126000000    -1.590000000
O    -3.939000000    -2.787000000    -0.309000000
H    -3.323000000    -2.642000000     0.409000000
H    -4.266000000    -1.914000000    -0.525000000
O    -3.199000000     4.577000000     1.878000000
H    -3.078000000     5.404000000     1.413000000
H    -3.435000000     3.950000000     1.194000000
O    -3.717000000    -0.560000000    -7.826000000
H    -3.311000000    -0.032000000    -7.138000000
H    -4.656000000    -0.499000000    -7.654000000
O     0.666000000    -1.867000000     3.949000000
H     1.491000000    -1.385000000     3.890000000
H     0.229000000    -1.501000000     4.718000000
O     3.153000000     2.382000000    -2.708000000
H     3.755000000     2.324000000    -1.966000000
H     3.537000000     1.811000000    -3.374000000
O     5.464000000    -3.832000000     1.129000000
H     5.893000000    -3.126000000     0.646000000
H     4.531000000    -3.711000000     0.952000000
O     3.387000000     0.722000000    -4.931000000
H     3.321000000     1.611000000    -5.280000000
H     4.144000000     0.345000000    -5.379000000
O    -5.779000000     2.971000000     1.513000000
H    -5.191000000     2.869000000     0.765000000
H    -6.073000000     3.881000000     1.464000000
O     1.183000000     2.568000000     4.611000000
H     1.967000000     3.090000000     4.782000000
H     0.579000000     3.176000000     4.186000000
O    -2.581000000    -4.272000000    -5.784000000
H    -2.716000000    -5.182000000    -5.520000000
H    -2.756000000    -3.764000000    -4.992000000
O    -0.521000000     1.514000000     6.345000000
H     0.157000000     1.960000000     5.837000000
H    -0.261000000     0.593000000     6.334000000
O    -5.808000000    -0.527000000    -2.599000000
H    -5.581000000    -1.056000000    -3.364000000
H    -4.965000000    -0.293000000    -2.211000000
O    -6.051000000     0.527000000     3.482000000
H    -5.789000000     1.200000000     2.854000000
H    -5.598000000     0.765000000     4.291000000
O    -5.218000000    -2.274000000    -4.701000000
H    -6.167000000    -2.360000000    -4.782000000
H    -4.931000000    -3.111000000    -4.337000000
O    -5.354000000     2.005000000    -6.362000000
H    -6.204000000     2.215000000    -5.975000000
H    -5.102000000     1.177000000    -5.953000000
O    -4.069000000     2.867000000    -0.500000000
H    -3.980000000     2.002000000    -0.899000000
H    -3.369000000     3.386000000    -0.895000000
O     0.303000000    -2.575000000     1.360000000
H     0.498000000    -1.802000000     0.831000000
H     0.299000000    -2.254000000     2.262000000
O    -2.746000000     2.112000000    -6.517000000
H    -3.694000000     2.095000000    -6.645000000
H    -2.398000000     2.439000000    -7.346000000
O    -7.085000000    -1.605000000     0.109000000
H    -6.979000000    -1.259000000    -0.777000000
H    -7.694000000    -2.338000000     0.008000000
O     3.184000000    -2.380000000    -2.477000000
H     2.404000000    -2.438000000    -3.030000000
H     3.047000000    -3.043000000    -1.800000000
O    -1.031000000    -4.526000000     0.400000000
H    -1.317000000    -4.773000000     1.280000000
H    -0.529000000    -3.722000000     0.528000000
O     6.992000000     3.115000000     4.036000000
H     6.738000000     2.693000000     4.857000000
H     6.253000000     2.961000000     3.448000000
O     3.055000000     3.394000000     0.586000000
H     3.632000000     3.966000000     0.080000000
H     2.171000000     3.676000000     0.349000000
O     6.739000000     0.524000000     0.138000000
H     6.822000000    -0.422000000     0.253000000
H     6.199000000     0.623000000    -0.646000000
O     5.104000000    -0.126000000    -1.910000000
H     4.510000000    -0.864000000    -1.773000000
H     5.126000000    -0.010000000    -2.860000000
O     3.258000000    -1.657000000     6.949000000
H     3.090000000    -2.505000000     7.360000000
H     2.395000000    -1.248000000     6.879000000
O    -3.363000000    -2.525000000     2.469000000
H    -3.512000000    -1.899000000     3.178000000
H    -3.758000000    -3.339000000     2.781000000
O     2.733000000    -0.130000000     4.074000000
H     3.690000000    -0.127000000     4.059000000
H     2.494000000     0.766000000     4.309000000
O     6.690000000    -2.224000000    -0.986000000
H     7.470000000    -1.768000000    -1.302000000
H     5.982000000    -1.904000000    -1.544000000
O    -4.886000000     3.525000000     4.245000000
H    -5.322000000     4.310000000     4.577000000
H    -4.669000000     3.737000000     3.338000000
O     2.554000000    -3.735000000     0.357000000
H     2.293000000    -4.653000000     0.292000000
H     1.906000000    -3.342000000     0.941000000
O     5.047000000     2.054000000     2.054000000
H     4.333000000     2.543000000     1.645000000
H     5.467000000     1.591000000     1.329000000
O    -0.846000000     1.325000000    -4.598000000
H    -1.206000000     0.499000000    -4.276000000
H    -1.445000000     1.594000000    -5.294000000
O     0.859000000    -2.974000000    -3.892000000
H     0.405000000    -3.522000000    -3.252000000
H     0.164000000    -2.458000000    -4.302000000
O    -0.873000000     3.985000000     3.238000000
H    -1.656000000     3.796000000     2.722000000
H    -0.652000000     4.889000000     3.015000000
O     5.110000000    -2.951000000    -4.225000000
H     4.524000000    -2.981000000    -3.469000000
H     5.366000000    -3.863000000    -4.366000000
O    -7.842000000     1.606000000    -2.183000000
H    -7.219000000     2.326000000    -2.284000000
H    -7.307000000     0.815000000    -2.245000000
O    -4.071000000     0.102000000    -4.988000000
H    -4.406000000    -0.794000000    -5.026000000
H    -3.423000000     0.087000000    -4.284000000
O     5.507000000    -0.209000000     3.630000000
H     6.405000000    -0.485000000     3.443000000
H     5.352000000     0.523000000     3.033000000
O     0.950000000    -0.247000000    -5.968000000
H     1.768000000     0.179000000    -5.714000000
H     0.277000000     0.199000000    -5.453000000
O     0.524000000     3.439000000    -3.697000000
H    -0.102000000     2.808000000    -4.053000000
H     1.326000000     2.934000000    -3.567000000
O     0.528000000    -4.774000000     4.031000000
H     0.449000000    -3.822000000     4.094000000
H    -0.283000000    -5.054000000     3.607000000
O     0.337000000     3.347000000    -0.278000000
H     0.263000000     3.077000000    -1.194000000
H     0.349000000     2.526000000     0.213000000
O    -0.004000000    -4.616000000    -2.163000000
H     0.614000000    -5.238000000    -1.781000000
H    -0.538000000    -4.324000000    -1.424000000
O    -2.783000000    -3.183000000    -2.859000000
H    -2.598000000    -2.277000000    -3.107000000
H    -3.301000000    -3.111000000    -2.057000000
O    -2.924000000    -5.471000000    -1.371000000
H    -2.387000000    -5.221000000    -0.618000000
H    -3.121000000    -4.644000000    -1.810000000
O    -2.018000000     4.438000000    -1.487000000
H    -1.219000000     4.404000000    -0.962000000
H    -1.940000000     5.249000000    -1.990000000
O    -6.139000000     3.855000000    -2.820000000
H    -5.269000000     3.666000000    -2.468000000
H    -5.996000000     3.984000000    -3.757000000
