158
-3051.62114
C     0.192000000     1.350000000     0.664000000
H     0.434000000     2.307000000     1.120000000
C     0.588000000     1.052000000    -0.660000000
H     1.011000000     1.793000000    -1.334000000
C     0.372000000    -0.249000000    -1.135000000
H     0.534000000    -0.480000000    -2.231000000
C    -0.216000000    -1.229000000    -0.326000000
H    -0.418000000    -2.176000000    -0.821000000
C    -0.673000000    -0.897000000     0.939000000
H    -1.155000000    -1.666000000     1.537000000
C    -0.447000000     0.333000000     1.484000000
C    -0.856000000     0.586000000     2.900000000
O    -0.566000000     1.636000000     3.419000000
O    -1.376000000    -0.305000000     3.558000000
O     2.277000000    -4.121000000    -3.546000000
H     3.040000000    -4.696000000    -3.498000000
H     1.699000000    -4.430000000    -2.849000000
O    -2.863000000     3.545000000    -0.119000000
H    -2.215000000     3.886000000     0.498000000
H    -2.404000000     3.518000000    -0.959000000
O     4.679000000     3.738000000     1.351000000
H     5.258000000     4.438000000     1.049000000
H     4.943000000     2.972000000     0.841000000
O     3.805000000     0.391000000     2.410000000
H     3.301000000     1.055000000     2.881000000
H     4.642000000     0.352000000     2.872000000
O     6.583000000    -1.930000000    -1.775000000
H     7.134000000    -1.151000000    -1.700000000
H     5.720000000    -1.591000000    -2.011000000
O    -1.124000000     4.615000000     7.040000000
H    -0.900000000     4.443000000     7.954000000
H    -0.671000000     3.928000000     6.549000000
O    -4.252000000     4.273000000     2.743000000
H    -4.497000000     5.059000000     3.232000000
H    -4.886000000     3.612000000     3.021000000
O     4.188000000    -1.057000000    -2.105000000
H     3.450000000    -0.561000000    -2.457000000
H     3.875000000    -1.386000000    -1.262000000
O    -2.245000000     0.201000000    -4.388000000
H    -3.094000000    -0.124000000    -4.688000000
H    -2.178000000    -0.105000000    -3.483000000
O    -1.605000000    -3.752000000    -3.762000000
H    -1.083000000    -3.737000000    -4.564000000
H    -0.968000000    -3.911000000    -3.065000000
O    -3.849000000     3.297000000     6.920000000
H    -3.536000000     2.566000000     6.386000000
H    -3.092000000     3.879000000     6.996000000
O    -1.688000000    -4.586000000     6.305000000
H    -2.643000000    -4.599000000     6.377000000
H    -1.450000000    -3.670000000     6.448000000
O     2.387000000     2.219000000     3.835000000
H     1.432000000     2.268000000     3.892000000
H     2.682000000     3.116000000     3.991000000
O     2.952000000    -1.112000000     0.268000000
H     2.197000000    -0.579000000     0.017000000
H     3.229000000    -0.752000000     1.111000000
O    -1.859000000    -2.797000000     4.173000000
H    -2.772000000    -2.906000000     3.906000000
H    -1.661000000    -1.880000000     3.981000000
O     4.972000000     2.092000000    -2.607000000
H     5.852000000     2.209000000    -2.966000000
H     4.491000000     2.868000000    -2.896000000
O    -1.327000000     4.017000000    -2.471000000
H    -1.401000000     3.843000000    -3.409000000
H    -0.412000000     3.827000000    -2.264000000
O     4.064000000    -1.871000000    -5.226000000
H     3.935000000    -0.967000000    -4.937000000
H     3.445000000    -2.379000000    -4.702000000
O    -1.692000000     3.904000000     2.305000000
H    -1.356000000     3.160000000     2.804000000
H    -2.608000000     3.978000000     2.571000000
O     1.814000000    -4.108000000     2.277000000
H     1.873000000    -4.120000000     1.321000000
H     2.696000000    -3.874000000     2.568000000
O    -3.974000000    -0.927000000     5.901000000
H    -4.533000000    -0.229000000     6.244000000
H    -4.581000000    -1.636000000     5.687000000
O    -4.103000000    -3.672000000     0.693000000
H    -3.874000000    -3.511000000    -0.222000000
H    -4.318000000    -2.807000000     1.042000000
O     2.532000000     4.988000000     2.786000000
H     3.282000000     4.515000000     2.426000000
H     1.806000000     4.766000000     2.202000000
O     1.756000000     5.965000000    -2.333000000
H     1.268000000     6.734000000    -2.627000000
H     2.224000000     6.263000000    -1.553000000
O    -5.453000000     2.170000000     4.227000000
H    -4.658000000     2.204000000     4.758000000
H    -6.133000000     2.543000000     4.788000000
O    -2.887000000     1.670000000     4.827000000
H    -2.930000000     0.753000000     5.098000000
H    -2.021000000     1.762000000     4.429000000
O     3.455000000     4.221000000    -3.755000000
H     2.983000000     4.715000000    -3.085000000
H     2.951000000     4.362000000    -4.556000000
O    -3.815000000    -3.461000000    -2.196000000
H    -3.020000000    -3.460000000    -2.729000000
H    -4.525000000    -3.588000000    -2.826000000
O    -1.755000000    -5.501000000    -0.295000000
H    -2.438000000    -4.834000000    -0.358000000
H    -1.440000000    -5.438000000     0.607000000
O    -2.786000000     0.736000000    -1.556000000
H    -2.888000000     1.609000000    -1.179000000
H    -1.946000000     0.426000000    -1.217000000
O     0.820000000     2.493000000    -6.327000000
H     1.133000000     3.381000000    -6.154000000
H     0.026000000     2.411000000    -5.800000000
O     0.056000000     5.976000000     4.785000000
H     0.529000000     5.217000000     4.445000000
H    -0.455000000     5.633000000     5.517000000
O    -4.737000000    -2.929000000     3.930000000
H    -4.662000000    -2.086000000     3.483000000
H    -5.548000000    -3.308000000     3.593000000
O     0.477000000    -4.560000000    -1.701000000
H    -0.353000000    -4.800000000    -1.290000000
H     1.128000000    -4.667000000    -1.007000000
O     2.727000000    -3.763000000    -0.214000000
H     3.601000000    -4.145000000    -0.290000000
H     2.883000000    -2.826000000    -0.102000000
O    -4.060000000    -0.302000000     2.820000000
H    -3.152000000    -0.206000000     3.107000000
H    -4.469000000     0.536000000     3.037000000
O     1.355000000    -1.630000000     5.205000000
H     1.274000000    -1.542000000     6.155000000
H     0.581000000    -1.189000000     4.857000000
O    -1.582000000     2.881000000    -4.971000000
H    -1.911000000     2.005000000    -4.767000000
H    -2.231000000     3.245000000    -5.573000000
O     2.834000000     0.562000000    -3.801000000
H     3.602000000     0.950000000    -3.382000000
H     2.407000000     1.296000000    -4.244000000
O    -5.267000000     0.925000000    -3.035000000
H    -4.346000000     0.669000000    -2.984000000
H    -5.365000000     1.294000000    -3.913000000
O    -0.766000000    -4.575000000     2.098000000
H    -1.115000000    -3.782000000     2.505000000
H     0.178000000    -4.526000000     2.249000000
O    -5.460000000    -0.736000000     0.223000000
H    -5.302000000    -0.419000000     1.113000000
H    -4.971000000    -0.134000000    -0.337000000
O    -2.150000000    -6.411000000     3.893000000
H    -1.751000000    -5.702000000     3.388000000
H    -2.714000000    -5.965000000     4.526000000
O    -0.838000000     6.131000000     0.615000000
H    -1.161000000     5.499000000     1.257000000
H    -0.295000000     6.734000000     1.124000000
O     0.140000000     2.732000000     5.690000000
H     0.317000000     1.890000000     6.109000000
H    -0.049000000     2.511000000     4.778000000
O     0.493000000    -4.695000000    -5.653000000
H     0.992000000    -4.619000000    -4.839000000
H     1.047000000    -4.280000000    -6.313000000
O    -1.294000000    -1.535000000    -7.802000000
H    -0.768000000    -1.003000000    -8.399000000
H    -0.984000000    -1.292000000    -6.929000000
O    -1.585000000    -1.377000000     7.179000000
H    -2.225000000    -1.370000000     7.890000000
H    -2.112000000    -1.445000000     6.383000000
