158
-3020.11394
C     0.297000000     1.322000000     0.641000000
H     0.634000000     2.287000000     1.010000000
C     0.273000000     1.079000000    -0.722000000
H     0.503000000     1.926000000    -1.363000000
C     0.094000000    -0.227000000    -1.233000000
H     0.252000000    -0.546000000    -2.241000000
C    -0.328000000    -1.227000000    -0.341000000
H    -0.540000000    -2.191000000    -0.795000000
C    -0.453000000    -0.936000000     1.030000000
H    -0.785000000    -1.771000000     1.642000000
C    -0.125000000     0.300000000     1.588000000
C    -0.099000000     0.538000000     3.056000000
O    -0.350000000     1.618000000     3.530000000
O    -0.030000000    -0.368000000     3.845000000
O    -1.832000000     3.423000000    -2.591000000
H    -2.562000000     3.142000000    -2.039000000
H    -2.248000000     3.842000000    -3.344000000
O     2.273000000     5.183000000     5.185000000
H     3.040000000     5.648000000     5.519000000
H     1.699000000     5.093000000     5.946000000
O    -2.644000000     1.126000000    -0.459000000
H    -2.706000000     1.145000000     0.496000000
H    -1.737000000     0.874000000    -0.635000000
O    -4.498000000    -1.412000000    -2.257000000
H    -4.112000000    -0.894000000    -1.551000000
H    -4.698000000    -2.256000000    -1.852000000
O     3.580000000    -4.231000000    -4.675000000
H     3.923000000    -4.148000000    -3.785000000
H     2.854000000    -3.608000000    -4.711000000
O    -3.003000000     1.157000000     5.321000000
H    -3.372000000     1.993000000     5.606000000
H    -2.137000000     1.382000000     4.981000000
O    -2.065000000    -3.845000000    -5.075000000
H    -2.940000000    -4.144000000    -5.325000000
H    -1.842000000    -4.373000000    -4.309000000
O    -3.145000000     1.082000000    -4.137000000
H    -3.769000000     1.512000000    -3.552000000
H    -2.785000000     0.364000000    -3.616000000
O     2.168000000    -1.995000000    -5.928000000
H     1.900000000    -1.920000000    -6.844000000
H     3.123000000    -1.935000000    -5.952000000
O    -0.370000000    -5.495000000     4.819000000
H     0.000000000    -4.661000000     5.108000000
H    -0.220000000    -6.092000000     5.552000000
O     2.704000000    -2.939000000     1.403000000
H     2.378000000    -2.564000000     0.585000000
H     3.087000000    -2.198000000     1.871000000
O     5.292000000     2.033000000    -5.115000000
H     6.068000000     2.510000000    -4.821000000
H     4.843000000     1.784000000    -4.307000000
O    -0.866000000    -2.375000000     5.358000000
H    -1.194000000    -2.849000000     4.593000000
H    -0.508000000    -1.562000000     5.001000000
O     5.548000000     2.238000000    -0.824000000
H     5.205000000     1.745000000    -0.078000000
H     4.941000000     2.971000000    -0.927000000
O    -3.381000000    -1.061000000    -6.193000000
H    -3.629000000    -0.264000000    -5.724000000
H    -2.568000000    -1.343000000    -5.775000000
O     0.066000000     1.586000000     8.087000000
H     0.024000000     0.880000000     8.733000000
H    -0.792000000     2.008000000     8.137000000
O     1.939000000     4.789000000     1.586000000
H     2.637000000     5.414000000     1.783000000
H     1.227000000     5.031000000     2.179000000
O    -4.617000000     3.165000000     3.026000000
H    -4.954000000     3.342000000     3.904000000
H    -3.746000000     3.563000000     3.019000000
O     1.452000000    -3.026000000    -3.431000000
H     1.919000000    -2.209000000    -3.606000000
H     2.046000000    -3.527000000    -2.872000000
O    -2.130000000     3.899000000     3.151000000
H    -1.508000000     3.190000000     2.986000000
H    -1.582000000     4.675000000     3.270000000
O     1.731000000     4.238000000    -3.755000000
H     2.311000000     4.323000000    -4.512000000
H     0.913000000     4.651000000    -4.032000000
O    -2.778000000     2.467000000    -6.537000000
H    -3.719000000     2.641000000    -6.510000000
H    -2.588000000     2.050000000    -5.696000000
O    -0.911000000    -2.963000000     7.995000000
H     0.042000000    -2.891000000     7.941000000
H    -1.210000000    -2.873000000     7.090000000
O     4.832000000    -1.761000000    -5.945000000
H     5.098000000    -1.690000000    -5.028000000
H     5.642000000    -1.961000000    -6.415000000
O    -4.544000000     2.395000000    -1.822000000
H    -5.413000000     2.048000000    -1.621000000
H    -3.956000000     1.923000000    -1.232000000
O     0.477000000     3.086000000    -6.511000000
H     1.391000000     3.369000000    -6.493000000
H     0.357000000     2.611000000    -5.689000000
O    -0.171000000     3.287000000     5.752000000
H     0.134000000     2.657000000     6.406000000
H    -0.250000000     2.777000000     4.946000000
O    -0.163000000    -5.350000000    -2.740000000
H     0.606000000    -5.766000000    -3.131000000
H    -0.164000000    -4.462000000    -3.099000000
O     3.105000000     4.325000000    -1.086000000
H     2.467000000     4.387000000    -0.375000000
H     2.580000000     4.371000000    -1.885000000
O    -2.887000000    -4.319000000    -1.002000000
H    -2.219000000    -3.752000000    -1.387000000
H    -3.134000000    -4.914000000    -1.710000000
O     3.026000000    -1.994000000     6.181000000
H     2.362000000    -1.312000000     6.079000000
H     3.677000000    -1.796000000     5.509000000
O    -0.336000000    -6.889000000    -0.275000000
H     0.040000000    -6.467000000    -1.048000000
H    -1.145000000    -6.406000000    -0.109000000
O    -4.756000000    -2.746000000     4.845000000
H    -4.272000000    -1.936000000     5.004000000
H    -5.059000000    -2.670000000     3.940000000
O     5.356000000     1.852000000     1.781000000
H     4.858000000     2.507000000     2.270000000
H     6.272000000     2.066000000     1.959000000
O    -4.247000000    -1.168000000     0.501000000
H    -3.878000000    -0.395000000     0.929000000
H    -3.659000000    -1.882000000     0.749000000
O     2.457000000     1.827000000    -3.345000000
H     2.393000000     2.753000000    -3.113000000
H     1.561000000     1.574000000    -3.568000000
O    -3.354000000     0.753000000     2.235000000
H    -3.696000000     1.624000000     2.438000000
H    -3.309000000     0.310000000     3.082000000
O     0.070000000     5.065000000    -1.106000000
H    -0.411000000     4.387000000    -1.581000000
H     0.168000000     4.713000000    -0.221000000
O     4.636000000    -0.762000000     2.381000000
H     4.641000000    -0.884000000     3.331000000
H     4.729000000     0.182000000     2.260000000
O     0.199000000     1.023000000    -4.287000000
H     0.277000000     0.153000000    -4.678000000
H    -0.715000000     1.080000000    -4.009000000
O     3.250000000    -0.945000000    -2.611000000
H     2.848000000    -0.738000000    -1.767000000
H     3.279000000    -0.108000000    -3.074000000
O    -2.923000000    -3.549000000     1.539000000
H    -2.966000000    -4.291000000     2.143000000
H    -2.841000000    -3.950000000     0.673000000
O     0.066000000     5.435000000     3.409000000
H     0.582000000     5.065000000     4.125000000
H     0.349000000     6.347000000     3.356000000
O     3.686000000     2.929000000     3.956000000
H     3.180000000     3.721000000     4.140000000
H     3.045000000     2.219000000     4.005000000
O    -0.746000000    -1.648000000    -4.996000000
H    -1.306000000    -2.408000000    -5.158000000
H     0.141000000    -1.963000000    -5.172000000
O    -1.226000000     5.156000000     7.441000000
H    -0.563000000     4.789000000     6.857000000
H    -1.666000000     4.392000000     7.814000000
O    -6.034000000    -0.067000000    -4.164000000
H    -5.206000000    -0.315000000    -3.754000000
H    -6.180000000    -0.736000000    -4.833000000
O     1.449000000     0.194000000     6.028000000
H     0.920000000     0.769000000     6.581000000
H     0.884000000    -0.008000000     5.283000000
