158
-3025.16716
C     0.674000000     1.274000000     0.358000000
H     1.079000000     2.274000000     0.491000000
C     0.088000000     0.920000000    -0.866000000
H     0.275000000     1.643000000    -1.656000000
C    -0.475000000    -0.314000000    -1.081000000
H    -0.949000000    -0.495000000    -2.069000000
C    -0.681000000    -1.207000000    -0.020000000
H    -1.180000000    -2.152000000    -0.218000000
C    -0.128000000    -0.905000000     1.204000000
H    -0.326000000    -1.552000000     2.055000000
C     0.545000000     0.377000000     1.403000000
C     1.213000000     0.703000000     2.720000000
O     2.055000000     1.581000000     2.727000000
O     0.896000000     0.151000000     3.744000000
O     2.702000000    -3.715000000    -5.011000000
H     3.241000000    -4.207000000    -4.392000000
H     2.086000000    -3.231000000    -4.461000000
O     3.354000000     4.117000000     6.948000000
H     4.264000000     4.411000000     6.908000000
H     2.966000000     4.426000000     6.129000000
O    -4.732000000     1.322000000    -3.156000000
H    -4.646000000     1.484000000    -2.216000000
H    -3.837000000     1.373000000    -3.491000000
O     3.497000000    -1.662000000     2.468000000
H     3.009000000    -1.275000000     3.195000000
H     4.177000000    -1.019000000     2.267000000
O    -1.490000000     1.527000000     3.996000000
H    -1.451000000     1.627000000     3.045000000
H    -0.681000000     1.069000000     4.222000000
O    -3.134000000    -0.788000000    -6.531000000
H    -3.707000000    -1.043000000    -5.808000000
H    -2.620000000    -0.059000000    -6.183000000
O    -2.298000000     0.982000000    -4.442000000
H    -1.514000000     1.484000000    -4.666000000
H    -1.963000000     0.136000000    -4.145000000
O     3.595000000     1.406000000     8.121000000
H     2.983000000     0.920000000     7.568000000
H     3.495000000     2.317000000     7.845000000
O    -0.523000000    -5.590000000     4.219000000
H    -0.663000000    -5.464000000     3.281000000
H    -1.341000000    -5.302000000     4.624000000
O    -4.852000000     1.055000000    -0.436000000
H    -5.376000000     0.328000000    -0.100000000
H    -5.377000000     1.834000000    -0.253000000
O     3.021000000    -1.336000000    -0.361000000
H     2.845000000    -1.861000000     0.420000000
H     2.458000000    -0.568000000    -0.265000000
O     0.173000000    -1.472000000     6.515000000
H    -0.252000000    -0.928000000     7.178000000
H    -0.317000000    -1.295000000     5.712000000
O     1.652000000     3.321000000    -4.171000000
H     2.117000000     4.147000000    -4.032000000
H     0.971000000     3.534000000    -4.809000000
O    -0.814000000    -2.782000000    -6.938000000
H    -0.361000000    -2.552000000    -6.127000000
H    -1.566000000    -2.191000000    -6.969000000
O     3.081000000     3.609000000     0.968000000
H     3.164000000     4.326000000     1.597000000
H     2.861000000     2.846000000     1.502000000
O    -2.525000000     1.385000000     1.123000000
H    -1.839000000     0.855000000     0.718000000
H    -3.205000000     1.450000000     0.453000000
O     1.008000000    -2.585000000    -3.295000000
H     0.800000000    -2.389000000    -2.382000000
H     0.661000000    -1.839000000    -3.785000000
O     1.102000000     4.001000000     3.284000000
H     1.678000000     3.245000000     3.167000000
H     1.670000000     4.679000000     3.651000000
O    -0.158000000    -4.161000000     6.741000000
H     0.063000000    -3.230000000     6.721000000
H    -0.382000000    -4.374000000     5.835000000
O     1.670000000    -3.641000000     1.956000000
H     1.866000000    -4.410000000     2.491000000
H     2.380000000    -3.029000000     2.148000000
O    -4.218000000    -3.526000000    -5.056000000
H    -4.609000000    -4.291000000    -5.478000000
H    -4.655000000    -3.472000000    -4.206000000
O     5.902000000     0.990000000     2.098000000
H     6.468000000     0.740000000     2.828000000
H     5.868000000     1.946000000     2.137000000
O    -2.770000000     1.419000000     6.518000000
H    -2.469000000     1.694000000     5.652000000
H    -3.317000000     0.652000000     6.349000000
O    -0.354000000     3.771000000     6.114000000
H     0.227000000     3.440000000     6.799000000
H     0.102000000     3.571000000     5.296000000
O    -1.195000000     4.014000000    -5.591000000
H    -2.040000000     3.857000000    -6.012000000
H    -1.153000000     4.964000000    -5.482000000
O    -2.099000000    -2.159000000    -3.713000000
H    -2.280000000    -2.452000000    -2.820000000
H    -2.607000000    -2.751000000    -4.267000000
O     3.016000000    -1.574000000     6.527000000
H     2.915000000    -0.772000000     6.015000000
H     2.124000000    -1.908000000     6.628000000
O    -0.475000000    -4.817000000    -4.156000000
H    -0.398000000    -4.834000000    -5.110000000
H    -0.081000000    -3.984000000    -3.899000000
O    -3.638000000    -1.760000000     1.304000000
H    -3.087000000    -0.988000000     1.432000000
H    -4.532000000    -1.438000000     1.420000000
O     3.909000000     2.067000000    -1.044000000
H     3.595000000     2.555000000    -0.282000000
H     4.127000000     2.742000000    -1.687000000
O     1.165000000     6.995000000     2.286000000
H     0.576000000     6.241000000     2.278000000
H     0.778000000     7.594000000     2.925000000
O    -1.416000000    -6.250000000    -1.749000000
H    -0.830000000    -5.602000000    -1.358000000
H    -1.185000000    -6.253000000    -2.678000000
O     1.058000000     5.369000000    -0.857000000
H     1.197000000     4.978000000    -1.719000000
H     1.722000000     4.963000000    -0.300000000
O     6.278000000     1.070000000    -0.609000000
H     6.197000000     0.498000000     0.154000000
H     5.444000000     1.538000000    -0.648000000
O    -0.343000000     1.870000000    -7.032000000
H    -0.571000000     2.634000000    -6.503000000
H    -0.905000000     1.936000000    -7.803000000
O     2.462000000     0.751000000    -3.426000000
H     2.922000000     0.779000000    -2.587000000
H     2.238000000     1.664000000    -3.606000000
O    -6.217000000    -0.986000000    -2.108000000
H    -5.890000000    -0.136000000    -2.403000000
H    -5.498000000    -1.593000000    -2.284000000
O    -1.778000000     5.126000000     0.407000000
H    -2.567000000     4.746000000     0.022000000
H    -1.094000000     4.969000000    -0.244000000
O    -0.572000000    -5.301000000     1.112000000
H    -1.411000000    -4.900000000     1.338000000
H     0.039000000    -4.566000000     1.060000000
O    -4.139000000    -2.610000000    -1.670000000
H    -4.715000000    -3.284000000    -1.310000000
H    -3.521000000    -2.421000000    -0.964000000
O    -4.256000000     1.866000000     3.452000000
H    -3.693000000     2.535000000     3.842000000
H    -3.653000000     1.290000000     2.982000000
O     3.496000000     5.681000000     2.804000000
H     2.809000000     6.322000000     2.620000000
H     3.964000000     6.042000000     3.557000000
O    -1.626000000     4.691000000     3.115000000
H    -1.896000000     4.866000000     2.213000000
H    -0.763000000     4.286000000     3.033000000
O     4.167000000     1.519000000     4.732000000
H     3.355000000     1.661000000     5.218000000
H     3.880000000     1.290000000     3.848000000
O    -2.446000000    -3.980000000     2.371000000
H    -3.050000000    -3.329000000     2.013000000
H    -2.434000000    -3.803000000     3.312000000
O     6.057000000     3.592000000     3.994000000
H     5.977000000     4.231000000     4.702000000
H     5.716000000     2.778000000     4.365000000
O     0.334000000    -0.062000000    -4.750000000
H     0.399000000     0.367000000    -5.603000000
H     1.107000000     0.237000000    -4.271000000
O     1.580000000     1.194000000     6.242000000
H     0.918000000     1.018000000     6.910000000
H     1.174000000     0.916000000     5.422000000
