158
-3011.32138
C     0.684000000     1.240000000     0.459000000
H     1.047000000     2.237000000     0.698000000
C    -0.055000000     1.089000000    -0.740000000
H    -0.238000000     1.929000000    -1.405000000
C    -0.628000000    -0.160000000    -1.042000000
H    -1.243000000    -0.359000000    -1.935000000
C    -0.587000000    -1.240000000    -0.144000000
H    -1.121000000    -2.164000000    -0.346000000
C     0.181000000    -1.112000000     1.024000000
H     0.135000000    -1.964000000     1.697000000
C     0.847000000     0.118000000     1.276000000
C     1.571000000     0.383000000     2.590000000
O     1.720000000     1.536000000     2.974000000
O     1.952000000    -0.543000000     3.266000000
O     3.337000000    -2.114000000    -5.157000000
H     3.813000000    -1.642000000    -4.473000000
H     2.453000000    -2.219000000    -4.805000000
O    -2.469000000     3.876000000    -0.004000000
H    -2.349000000     3.858000000    -0.953000000
H    -3.408000000     3.737000000     0.121000000
O    -3.288000000     1.475000000    -3.316000000
H    -3.222000000     1.390000000    -2.365000000
H    -2.627000000     0.872000000    -3.657000000
O     4.995000000    -0.281000000     4.133000000
H     4.059000000    -0.265000000     3.933000000
H     5.150000000     0.530000000     4.618000000
O    -5.723000000    -1.603000000    -4.684000000
H    -5.823000000    -1.195000000    -3.824000000
H    -5.785000000    -2.543000000    -4.512000000
O    -0.605000000    -0.303000000     5.046000000
H    -1.197000000    -0.543000000     4.333000000
H     0.207000000    -0.769000000     4.850000000
O    -1.447000000     0.138000000    -4.597000000
H    -0.819000000     0.309000000    -5.299000000
H    -1.415000000    -0.811000000    -4.473000000
O    -0.026000000    -3.673000000     6.188000000
H     0.588000000    -2.967000000     6.391000000
H    -0.890000000    -3.280000000     6.307000000
O    -2.738000000    -3.215000000     5.627000000
H    -2.795000000    -2.350000000     5.223000000
H    -2.983000000    -3.070000000     6.541000000
O    -3.934000000     1.108000000    -0.723000000
H    -3.664000000     0.567000000     0.018000000
H    -4.124000000     1.964000000    -0.338000000
O    -0.732000000    -6.660000000     0.119000000
H    -0.466000000    -5.804000000     0.453000000
H    -0.273000000    -7.288000000     0.675000000
O     3.449000000    -3.602000000     0.087000000
H     3.348000000    -3.677000000     1.036000000
H     3.848000000    -2.741000000    -0.043000000
O     1.939000000    -1.794000000     5.496000000
H     1.744000000    -1.093000000     6.118000000
H     1.929000000    -1.364000000     4.641000000
O     0.043000000     3.918000000    -5.156000000
H    -0.532000000     3.153000000    -5.161000000
H    -0.180000000     4.390000000    -5.958000000
O    -0.272000000    -4.957000000    -5.153000000
H    -0.128000000    -4.091000000    -5.535000000
H    -1.170000000    -4.926000000    -4.821000000
O     1.727000000     0.138000000     7.338000000
H     2.021000000    -0.372000000     8.092000000
H     0.839000000     0.413000000     7.566000000
O     3.338000000     3.447000000     1.086000000
H     2.871000000     3.869000000     0.365000000
H     2.656000000     3.243000000     1.726000000
O    -2.251000000     1.906000000     2.122000000
H    -2.129000000     2.399000000     1.311000000
H    -1.852000000     2.454000000     2.798000000
O     0.738000000    -2.331000000    -3.268000000
H     0.034000000    -2.940000000    -3.044000000
H     0.465000000    -1.946000000    -4.101000000
O     0.199000000     3.358000000     4.852000000
H     0.532000000     2.714000000     4.227000000
H     0.976000000     3.658000000     5.323000000
O     3.566000000    -3.553000000     2.640000000
H     3.736000000    -4.195000000     3.329000000
H     3.029000000    -2.884000000     3.065000000
O    -4.364000000    -4.759000000     1.230000000
H    -4.025000000    -5.409000000     0.615000000
H    -3.609000000    -4.207000000     1.435000000
O     5.088000000     2.504000000     3.029000000
H     4.920000000     1.584000000     2.825000000
H     4.452000000     2.986000000     2.500000000
O    -6.290000000     2.551000000    -3.176000000
H    -5.388000000     2.390000000    -3.454000000
H    -6.482000000     3.436000000    -3.485000000
O    -1.124000000     0.855000000     7.286000000
H    -1.011000000     0.595000000     6.372000000
H    -1.258000000     0.031000000     7.754000000
O    -2.728000000     3.739000000    -5.085000000
H    -3.101000000     3.489000000    -5.930000000
H    -2.865000000     2.974000000    -4.527000000
O     3.633000000     4.544000000    -1.902000000
H     4.558000000     4.746000000    -2.048000000
H     3.231000000     4.628000000    -2.767000000
O    -0.208000000     5.160000000    -2.687000000
H    -0.924000000     5.688000000    -3.041000000
H    -0.075000000     4.470000000    -3.337000000
O    -2.382000000    -2.569000000    -4.288000000
H    -2.641000000    -2.869000000    -3.417000000
H    -2.874000000    -3.128000000    -4.890000000
O    -2.317000000    -1.157000000     3.090000000
H    -2.062000000    -0.552000000     2.393000000
H    -3.257000000    -1.012000000     3.200000000
O     4.513000000     1.822000000    -1.001000000
H     4.441000000     2.298000000    -0.174000000
H     4.515000000     2.506000000    -1.671000000
O     1.526000000     6.688000000     2.903000000
H     0.945000000     6.114000000     2.403000000
H     1.133000000     6.726000000     3.774000000
O    -5.765000000    -3.183000000    -0.630000000
H    -6.691000000    -3.119000000    -0.397000000
H    -5.398000000    -3.795000000     0.009000000
O    -4.265000000     0.212000000    -6.109000000
H    -3.719000000     0.423000000    -5.351000000
H    -4.772000000    -0.552000000    -5.833000000
O     2.006000000    -5.742000000    -0.704000000
H     2.626000000    -5.022000000    -0.594000000
H     1.229000000    -5.466000000    -0.219000000
O     1.224000000     5.350000000    -0.339000000
H     2.049000000     5.498000000    -0.801000000
H     0.548000000     5.578000000    -0.977000000
O     0.155000000     0.224000000    -7.058000000
H     1.025000000     0.623000000    -7.062000000
H    -0.132000000     0.265000000    -7.970000000
O     4.070000000    -0.702000000    -0.549000000
H     4.235000000     0.226000000    -0.716000000
H     3.155000000    -0.736000000    -0.270000000
O    -6.076000000    -0.577000000    -2.089000000
H    -5.653000000     0.249000000    -1.853000000
H    -5.804000000    -1.189000000    -1.405000000
O     3.722000000    -3.085000000     7.124000000
H     3.134000000    -2.748000000     6.448000000
H     3.251000000    -2.943000000     7.945000000
O    -0.457000000     4.931000000     1.631000000
H    -1.165000000     4.551000000     1.111000000
H     0.180000000     5.234000000     0.983000000
O     0.214000000    -4.757000000     1.706000000
H     0.854000000    -4.662000000     2.412000000
H    -0.609000000    -4.452000000     2.087000000
O    -3.250000000    -3.816000000    -2.049000000
H    -3.264000000    -4.755000000    -1.865000000
H    -3.909000000    -3.447000000    -1.461000000
O    -1.568000000     5.192000000     3.888000000
H    -1.013000000     4.488000000     4.221000000
H    -1.183000000     5.421000000     3.042000000
O     4.664000000     4.338000000     5.696000000
H     3.827000000     4.555000000     6.107000000
H     4.579000000     3.416000000     5.453000000
O    -2.124000000    -3.749000000     2.849000000
H    -2.292000000    -2.810000000     2.917000000
H    -2.579000000    -4.130000000     3.600000000
O     0.676000000    -2.747000000    -6.432000000
H     0.290000000    -1.874000000    -6.503000000
H     1.370000000    -2.756000000    -7.091000000
O     2.764000000     1.865000000     5.274000000
H     2.259000000     1.226000000     5.777000000
H     2.405000000     1.811000000     4.388000000
