158
-3058.74887
C     0.642000000     1.342000000     0.257000000
H     1.035000000     2.355000000     0.262000000
C     0.003000000     0.933000000    -0.936000000
H    -0.004000000     1.444000000    -1.895000000
C    -0.559000000    -0.368000000    -1.010000000
H    -0.962000000    -0.735000000    -1.979000000
C    -0.488000000    -1.242000000     0.010000000
H    -0.864000000    -2.257000000    -0.089000000
C     0.217000000    -0.857000000     1.169000000
H     0.281000000    -1.578000000     1.979000000
C     0.737000000     0.431000000     1.332000000
C     1.437000000     0.938000000     2.565000000
O     1.367000000     2.143000000     2.845000000
O     1.765000000     0.125000000     3.409000000
O     2.116000000    -2.030000000    -3.789000000
H     1.788000000    -2.876000000    -3.484000000
H     1.438000000    -1.710000000    -4.383000000
O     3.992000000     0.531000000     4.763000000
H     3.591000000     0.885000000     5.557000000
H     3.251000000     0.265000000     4.219000000
O     6.033000000    -2.147000000     3.459000000
H     6.268000000    -1.520000000     4.142000000
H     5.234000000    -2.564000000     3.780000000
O    -1.089000000     2.246000000     3.906000000
H    -0.171000000     2.289000000     3.640000000
H    -1.456000000     1.529000000     3.389000000
O    -3.783000000     1.437000000    -3.210000000
H    -3.439000000     0.909000000    -3.931000000
H    -3.893000000     0.816000000    -2.490000000
O     0.590000000     4.312000000     7.157000000
H     1.253000000     4.078000000     6.509000000
H    -0.098000000     3.656000000     7.045000000
O     0.941000000    -5.059000000    -2.698000000
H     1.538000000    -5.805000000    -2.637000000
H     0.121000000    -5.378000000    -2.321000000
O    -1.134000000    -2.446000000     4.866000000
H    -1.819000000    -2.414000000     5.534000000
H    -1.582000000    -2.217000000     4.052000000
O     5.453000000     1.860000000     6.774000000
H     5.369000000     1.544000000     5.874000000
H     6.070000000     2.590000000     6.715000000
O    -2.610000000    -5.535000000     1.284000000
H    -1.942000000    -5.717000000     1.944000000
H    -3.417000000    -5.894000000     1.653000000
O     5.261000000    -0.813000000    -0.457000000
H     5.275000000    -0.552000000     0.464000000
H     4.340000000    -0.753000000    -0.710000000
O     0.915000000    -0.861000000     5.651000000
H     0.299000000    -1.563000000     5.443000000
H     1.093000000    -0.442000000     4.808000000
O    -0.790000000    -3.556000000    -4.846000000
H    -0.814000000    -4.287000000    -5.463000000
H    -0.819000000    -3.970000000    -3.983000000
O     2.407000000     0.996000000     6.888000000
H     2.746000000     0.658000000     7.717000000
H     1.690000000     0.402000000     6.664000000
O     4.234000000     2.780000000     2.224000000
H     4.211000000     3.037000000     1.302000000
H     3.373000000     3.024000000     2.563000000
O    -2.030000000     3.632000000     1.031000000
H    -1.143000000     3.741000000     1.374000000
H    -2.196000000     4.434000000     0.536000000
O     5.224000000     0.021000000     2.193000000
H     4.611000000     0.626000000     2.611000000
H     5.298000000    -0.708000000     2.809000000
O    -0.098000000    -0.575000000    -5.308000000
H    -0.890000000    -0.570000000    -4.770000000
H    -0.143000000    -1.400000000    -5.792000000
O     0.254000000     4.474000000     1.899000000
H     0.756000000     3.805000000     2.364000000
H     0.389000000     5.273000000     2.409000000
O     1.145000000     3.249000000    -5.624000000
H     1.979000000     3.418000000    -6.062000000
H     0.668000000     4.077000000    -5.690000000
O     2.871000000    -2.328000000     2.621000000
H     3.121000000    -2.593000000     3.506000000
H     2.417000000    -1.494000000     2.740000000
O    -3.845000000    -3.904000000     3.894000000
H    -3.749000000    -3.234000000     4.571000000
H    -3.656000000    -3.445000000     3.075000000
O    -3.766000000    -3.131000000     0.968000000
H    -4.519000000    -3.555000000     0.556000000
H    -3.076000000    -3.794000000     0.944000000
O     6.066000000     2.044000000     4.107000000
H     5.485000000     2.442000000     3.459000000
H     5.796000000     1.126000000     4.139000000
O    -1.548000000     2.592000000     6.588000000
H    -1.478000000     2.237000000     5.702000000
H    -1.240000000     1.884000000     7.154000000
O    -2.614000000     4.443000000     3.480000000
H    -2.813000000     4.140000000     2.594000000
H    -2.053000000     3.760000000     3.846000000
O    -2.008000000    -4.751000000    -1.983000000
H    -2.602000000    -4.005000000    -2.066000000
H    -1.740000000    -4.744000000    -1.064000000
O    -1.849000000     3.241000000    -3.503000000
H    -1.742000000     2.884000000    -4.384000000
H    -2.467000000     2.646000000    -3.077000000
O    -2.693000000    -0.470000000    -4.743000000
H    -3.320000000    -1.076000000    -4.350000000
H    -2.664000000    -0.720000000    -5.667000000
O    -2.350000000     1.085000000     1.163000000
H    -1.449000000     0.957000000     0.866000000
H    -2.509000000     2.022000000     1.048000000
O     3.879000000     5.081000000     0.030000000
H     4.123000000     4.850000000    -0.867000000
H     2.922000000     5.105000000     0.018000000
O     2.291000000     0.673000000    -6.414000000
H     2.621000000     1.431000000    -6.898000000
H     1.352000000     0.835000000    -6.328000000
O     2.235000000    -3.681000000     0.234000000
H     2.533000000    -3.583000000     1.139000000
H     2.464000000    -2.851000000    -0.185000000
O    -3.835000000    -2.822000000    -2.541000000
H    -3.683000000    -1.992000000    -2.090000000
H    -4.692000000    -3.111000000    -2.227000000
O     0.617000000     3.980000000    -2.864000000
H     0.851000000     3.453000000    -3.627000000
H    -0.338000000     3.921000000    -2.816000000
O    -1.305000000     2.344000000    -6.258000000
H    -0.416000000     2.638000000    -6.062000000
H    -1.303000000     1.412000000    -6.040000000
O     2.512000000    -1.327000000    -1.092000000
H     1.664000000    -0.989000000    -0.804000000
H     2.561000000    -1.093000000    -2.019000000
O    -6.142000000     2.242000000    -2.843000000
H    -6.454000000     2.446000000    -1.961000000
H    -5.204000000     2.086000000    -2.734000000
O    -0.977000000     0.221000000     7.604000000
H    -1.475000000    -0.486000000     8.014000000
H    -0.351000000    -0.226000000     7.035000000
O     3.325000000    -2.452000000     5.557000000
H     2.584000000    -1.936000000     5.874000000
H     3.983000000    -2.377000000     6.249000000
O     1.041000000     5.546000000    -0.518000000
H     0.750000000     5.005000000    -1.252000000
H     0.284000000     5.583000000     0.066000000
O    -3.785000000    -5.641000000    -4.033000000
H    -3.299000000    -5.090000000    -3.419000000
H    -4.559000000    -5.920000000    -3.543000000
O    -0.174000000    -5.030000000     3.450000000
H     0.555000000    -5.117000000     4.064000000
H    -0.629000000    -4.235000000     3.727000000
O    -4.048000000    -0.073000000    -1.010000000
H    -3.512000000     0.371000000    -0.354000000
H    -4.887000000    -0.222000000    -0.574000000
O     0.685000000    -5.746000000     0.678000000
H     1.404000000    -5.140000000     0.500000000
H     0.192000000    -5.331000000     1.386000000
O     4.212000000     4.687000000     6.123000000
H     4.739000000     4.005000000     6.539000000
H     3.362000000     4.274000000     5.971000000
O    -2.158000000    -1.405000000     2.710000000
H    -2.058000000    -0.495000000     2.428000000
H    -2.685000000    -1.812000000     2.022000000
O     2.058000000     3.195000000     5.236000000
H     2.233000000     2.444000000     5.803000000
H     1.895000000     2.812000000     4.374000000
