158
-3038.08497
C     1.184000000    -0.800000000    -0.033000000
H     2.081000000    -1.410000000    -0.103000000
C     0.656000000    -0.117000000    -1.111000000
H     1.069000000    -0.333000000    -2.093000000
C    -0.456000000     0.688000000    -0.948000000
H    -0.989000000     1.139000000    -1.847000000
C    -0.978000000     0.867000000     0.351000000
H    -1.821000000     1.548000000     0.432000000
C    -0.500000000     0.101000000     1.455000000
H    -0.952000000     0.062000000     2.442000000
C     0.623000000    -0.684000000     1.254000000
C     1.212000000    -1.421000000     2.439000000
O     1.968000000    -2.392000000     2.134000000
O     0.948000000    -1.090000000     3.600000000
O     0.565000000     0.161000000    -4.782000000
H     1.134000000     0.418000000    -4.057000000
H     0.020000000     0.931000000    -4.944000000
O     5.161000000     0.168000000    -3.998000000
H     5.440000000    -0.377000000    -4.733000000
H     5.778000000    -0.042000000    -3.296000000
O     3.477000000    -6.810000000     0.856000000
H     3.216000000    -7.114000000     1.725000000
H     2.713000000    -6.336000000     0.528000000
O    -2.971000000    -3.939000000    -2.999000000
H    -2.579000000    -3.128000000    -2.676000000
H    -3.385000000    -3.693000000    -3.826000000
O    -0.014000000     4.698000000    -2.037000000
H    -0.022000000     5.324000000    -1.314000000
H    -0.535000000     3.960000000    -1.721000000
O     0.167000000    -1.365000000     7.382000000
H     0.365000000    -2.042000000     8.029000000
H    -0.082000000    -1.851000000     6.595000000
O     3.853000000    -5.179000000     4.288000000
H     3.186000000    -4.610000000     4.673000000
H     3.973000000    -4.841000000     3.401000000
O     3.817000000     1.891000000    -0.001000000
H     3.621000000     2.012000000     0.928000000
H     3.724000000     2.764000000    -0.382000000
O     1.572000000    -5.033000000    -0.420000000
H     1.781000000    -4.292000000    -0.988000000
H     1.204000000    -5.691000000    -1.010000000
O    -3.011000000     3.365000000     3.676000000
H    -2.171000000     3.011000000     3.386000000
H    -3.299000000     3.923000000     2.953000000
O     2.970000000     1.330000000    -2.995000000
H     3.040000000     1.411000000    -2.044000000
H     3.671000000     0.725000000    -3.237000000
O    -4.408000000    -1.222000000    -2.528000000
H    -5.155000000    -1.627000000    -2.086000000
H    -3.646000000    -1.518000000    -2.030000000
O     1.671000000     1.203000000     7.123000000
H     2.212000000     1.657000000     7.769000000
H     1.282000000     0.474000000     7.605000000
O    -2.446000000     4.011000000    -0.773000000
H    -2.737000000     3.155000000    -1.089000000
H    -2.974000000     4.170000000     0.009000000
O     4.102000000    -4.004000000     1.317000000
H     3.988000000    -4.560000000     0.546000000
H     3.293000000    -3.494000000     1.365000000
O     2.193000000    -3.037000000     5.401000000
H     2.550000000    -2.482000000     6.094000000
H     1.842000000    -2.421000000     4.758000000
O     4.281000000    -1.291000000     3.088000000
H     3.508000000    -1.845000000     2.979000000
H     4.214000000    -0.645000000     2.385000000
O    -0.320000000     2.911000000     2.786000000
H    -0.079000000     2.583000000     3.653000000
H    -0.098000000     2.197000000     2.189000000
O     7.266000000    -1.562000000     1.130000000
H     6.530000000    -1.687000000     0.530000000
H     6.920000000    -1.806000000     1.988000000
O    -2.337000000     2.637000000    -5.456000000
H    -3.185000000     2.866000000    -5.077000000
H    -2.393000000     1.696000000    -5.619000000
O     0.014000000     4.692000000    -4.953000000
H    -0.052000000     4.637000000    -3.999000000
H    -0.539000000     3.979000000    -5.272000000
O    -2.313000000     6.529000000    -1.738000000
H    -1.517000000     6.780000000    -1.268000000
H    -2.431000000     5.602000000    -1.531000000
O    -3.580000000     1.704000000    -2.007000000
H    -3.036000000     1.002000000    -2.365000000
H    -4.178000000     1.260000000    -1.406000000
O     2.691000000     4.505000000    -1.737000000
H     1.750000000     4.612000000    -1.878000000
H     3.045000000     4.323000000    -2.607000000
O    -0.896000000    -2.083000000    -5.199000000
H    -0.393000000    -1.311000000    -4.942000000
H    -0.465000000    -2.811000000    -4.750000000
O    -2.835000000    -0.168000000    -5.216000000
H    -3.748000000    -0.454000000    -5.236000000
H    -2.343000000    -0.953000000    -4.977000000
O     0.419000000    -4.556000000     2.153000000
H     0.865000000    -3.713000000     2.240000000
H     0.606000000    -4.833000000     1.256000000
O     3.739000000     3.242000000    -4.760000000
H     3.309000000     2.666000000    -4.128000000
H     3.861000000     2.697000000    -5.537000000
O    -6.256000000     3.136000000     1.319000000
H    -6.328000000     2.932000000     2.251000000
H    -5.536000000     2.587000000     1.008000000
O     4.475000000    -0.662000000    -0.615000000
H     5.348000000    -0.500000000    -0.971000000
H     4.166000000     0.200000000    -0.337000000
O     3.162000000    -3.130000000    -1.755000000
H     3.880000000    -3.732000000    -1.949000000
H     3.594000000    -2.300000000    -1.551000000
O    -1.042000000    -2.282000000     4.965000000
H    -0.255000000    -1.975000000     4.516000000
H    -1.755000000    -2.096000000     4.353000000
O    -3.709000000     4.962000000     1.587000000
H    -4.379000000     5.584000000     1.304000000
H    -2.909000000     5.484000000     1.650000000
O    -3.676000000     2.324000000     6.204000000
H    -4.382000000     1.679000000     6.234000000
H    -3.481000000     2.423000000     5.272000000
O    -2.140000000    -2.028000000    -1.103000000
H    -2.176000000    -2.707000000    -0.429000000
H    -1.371000000    -1.506000000    -0.876000000
O     2.459000000    -1.466000000    -6.351000000
H     1.778000000    -0.797000000    -6.291000000
H     2.335000000    -2.005000000    -5.569000000
O     3.462000000     2.026000000     2.814000000
H     3.893000000     2.858000000     3.013000000
H     2.855000000     1.891000000     3.541000000
O     3.522000000    -1.700000000     7.189000000
H     3.127000000    -0.866000000     6.935000000
H     3.107000000    -1.917000000     8.024000000
O     0.630000000    -5.588000000     4.771000000
H     0.553000000    -5.122000000     3.939000000
H     1.123000000    -4.993000000     5.335000000
O    -2.153000000    -4.092000000     6.903000000
H    -1.599000000    -3.703000000     6.226000000
H    -1.537000000    -4.479000000     7.524000000
O    -5.041000000     0.601000000    -0.010000000
H    -4.596000000     0.416000000     0.817000000
H    -5.954000000     0.364000000     0.151000000
O    -4.016000000    -2.260000000     3.931000000
H    -4.640000000    -1.731000000     3.434000000
H    -4.474000000    -2.470000000     4.745000000
O    -5.714000000     0.630000000    -4.020000000
H    -5.457000000     1.451000000    -3.600000000
H    -5.213000000    -0.042000000    -3.557000000
O     1.444000000     1.350000000     4.422000000
H     1.564000000     1.371000000     5.371000000
H     1.341000000     0.421000000     4.214000000
O     1.727000000    -2.943000000    -3.966000000
H     2.381000000    -2.967000000    -3.267000000
H     1.143000000    -3.676000000    -3.772000000
O    -4.428000000     3.493000000    -4.051000000
H    -3.831000000     3.102000000    -3.413000000
H    -5.257000000     3.580000000    -3.581000000
O     6.546000000    -3.192000000     3.475000000
H     5.666000000    -3.256000000     3.105000000
H     6.405000000    -3.148000000     4.421000000
O    -0.535000000     3.053000000     6.023000000
H    -0.350000000     2.219000000     6.453000000
H    -1.487000000     3.064000000     5.918000000
