158
-3007.08887
C    -0.064000000    -0.892000000     1.228000000
H     0.058000000    -1.412000000     2.175000000
C     1.030000000    -0.546000000     0.455000000
H     1.958000000    -0.953000000     0.848000000
C     0.963000000     0.189000000    -0.694000000
H     1.899000000     0.490000000    -1.211000000
C    -0.243000000     0.716000000    -1.074000000
H    -0.183000000     1.330000000    -1.969000000
C    -1.397000000     0.364000000    -0.351000000
H    -2.327000000     0.788000000    -0.718000000
C    -1.320000000    -0.363000000     0.839000000
C    -2.517000000    -0.575000000     1.652000000
O    -2.521000000    -1.483000000     2.462000000
O    -3.326000000     0.334000000     1.636000000
O     4.138000000     2.284000000    -6.213000000
H     4.989000000     2.671000000    -6.006000000
H     3.881000000     1.829000000    -5.411000000
O     5.364000000    -0.405000000    -0.134000000
H     5.696000000    -1.033000000     0.507000000
H     4.918000000    -0.943000000    -0.788000000
O    -1.870000000    -1.450000000    -3.257000000
H    -1.943000000    -2.331000000    -2.890000000
H    -0.928000000    -1.280000000    -3.285000000
O     3.605000000     1.816000000     0.773000000
H     4.275000000     2.500000000     0.756000000
H     3.922000000     1.155000000     0.158000000
O     1.645000000     1.806000000     3.564000000
H     2.098000000     1.643000000     2.737000000
H     1.587000000     0.946000000     3.979000000
O     0.357000000     2.053000000    -4.991000000
H     1.175000000     2.129000000    -5.482000000
H    -0.203000000     1.506000000    -5.541000000
O     3.680000000     0.448000000    -4.165000000
H     4.047000000    -0.262000000    -3.639000000
H     3.256000000     1.023000000    -3.528000000
O     0.602000000    -2.018000000    -4.889000000
H     0.639000000    -2.422000000    -4.022000000
H    -0.187000000    -2.384000000    -5.289000000
O     2.085000000    -4.572000000    -0.879000000
H     2.703000000    -4.497000000    -1.605000000
H     2.622000000    -4.462000000    -0.094000000
O    -0.247000000     3.978000000     3.682000000
H    -0.670000000     3.683000000     2.875000000
H     0.453000000     3.342000000     3.831000000
O    -6.473000000     0.502000000    -0.597000000
H    -6.526000000    -0.360000000    -0.185000000
H    -5.969000000     0.355000000    -1.397000000
O    -6.859000000    -3.252000000     2.167000000
H    -6.587000000    -3.230000000     3.085000000
H    -7.302000000    -4.095000000     2.068000000
O    -0.068000000     0.206000000     7.259000000
H    -0.454000000     1.056000000     7.047000000
H     0.363000000    -0.070000000     6.450000000
O     1.256000000     3.624000000    -0.862000000
H     1.210000000     4.507000000    -0.496000000
H     1.013000000     3.050000000    -0.135000000
O     0.744000000    -0.674000000     4.654000000
H     0.071000000    -1.354000000     4.607000000
H     1.511000000    -1.068000000     4.239000000
O    -4.352000000    -2.950000000     7.073000000
H    -4.250000000    -2.139000000     6.575000000
H    -4.009000000    -2.743000000     7.942000000
O    -8.312000000    -0.790000000     2.443000000
H    -7.645000000    -0.137000000     2.232000000
H    -7.831000000    -1.616000000     2.492000000
O     6.170000000    -2.432000000     1.557000000
H     7.049000000    -2.765000000     1.375000000
H     5.985000000    -2.721000000     2.451000000
O    -1.099000000    -2.602000000     4.578000000
H    -1.672000000    -3.235000000     5.010000000
H    -1.473000000    -2.498000000     3.702000000
O    -4.158000000     4.598000000     4.151000000
H    -4.020000000     3.655000000     4.059000000
H    -3.279000000     4.960000000     4.259000000
O    -3.826000000    -6.576000000     1.470000000
H    -3.429000000    -5.709000000     1.554000000
H    -4.184000000    -6.591000000     0.582000000
O     3.111000000    -1.891000000     3.727000000
H     3.954000000    -1.843000000     4.179000000
H     3.224000000    -2.591000000     3.084000000
O    -3.532000000    -0.825000000     5.454000000
H    -2.944000000    -0.966000000     4.713000000
H    -3.203000000    -0.029000000     5.872000000
O     1.848000000    -0.310000000    -6.565000000
H     1.390000000    -0.800000000    -5.882000000
H     2.717000000    -0.143000000    -6.199000000
O     5.237000000    -4.583000000    -0.077000000
H     5.208000000    -3.872000000     0.563000000
H     5.528000000    -4.165000000    -0.887000000
O    -5.904000000    -2.123000000     0.107000000
H    -4.951000000    -2.092000000     0.188000000
H    -6.192000000    -2.642000000     0.858000000
O    -1.783000000     2.740000000     1.575000000
H    -1.191000000     2.522000000     0.855000000
H    -2.492000000     2.101000000     1.505000000
O     3.478000000     3.229000000    -2.629000000
H     4.411000000     3.173000000    -2.424000000
H     3.039000000     3.070000000    -1.793000000
O    -6.102000000     3.686000000     2.416000000
H    -5.504000000     4.224000000     2.935000000
H    -5.892000000     3.901000000     1.507000000
O    -3.697000000     2.709000000    -2.575000000
H    -3.717000000     1.793000000    -2.854000000
H    -2.789000000     2.980000000    -2.711000000
O     0.942000000    -2.899000000     6.438000000
H     0.253000000    -2.709000000     7.075000000
H     0.514000000    -2.804000000     5.587000000
O     3.548000000    -4.376000000     2.543000000
H     2.871000000    -5.048000000     2.461000000
H     4.362000000    -4.868000000     2.653000000
O    -1.809000000     5.729000000     0.971000000
H    -0.860000000     5.840000000     0.910000000
H    -1.932000000     4.792000000     1.124000000
O     0.534000000    -2.443000000    -2.151000000
H     0.200000000    -1.864000000    -1.465000000
H     1.043000000    -3.103000000    -1.680000000
O     3.029000000     6.061000000    -2.870000000
H     3.099000000     5.120000000    -3.031000000
H     2.470000000     6.384000000    -3.576000000
O    -1.641000000     5.819000000    -4.466000000
H    -2.219000000     6.383000000    -3.953000000
H    -1.391000000     5.120000000    -3.861000000
O    -5.992000000     0.977000000     2.031000000
H    -5.243000000     0.766000000     1.474000000
H    -5.859000000     1.893000000     2.274000000
O    -2.822000000    -3.996000000     0.234000000
H    -1.909000000    -3.783000000     0.428000000
H    -3.301000000    -3.733000000     1.020000000
O    -3.822000000    -3.676000000     2.665000000
H    -3.368000000    -2.869000000     2.906000000
H    -4.665000000    -3.620000000     3.115000000
O     3.852000000    -1.865000000    -1.977000000
H     2.929000000    -1.612000000    -1.979000000
H     3.855000000    -2.762000000    -2.310000000
O     6.972000000    -0.126000000    -2.335000000
H     6.516000000    -0.158000000    -1.494000000
H     7.582000000     0.606000000    -2.248000000
O    -0.717000000     3.751000000    -2.969000000
H    -0.046000000     3.975000000    -2.323000000
H    -0.262000000     3.200000000    -3.606000000
O    -3.304000000     2.030000000     4.011000000
H    -2.969000000     1.666000000     4.831000000
H    -3.239000000     1.310000000     3.385000000
O     6.101000000     3.603000000     0.251000000
H     6.402000000     3.011000000     0.941000000
H     6.399000000     4.469000000     0.532000000
O    -6.233000000    -0.588000000     4.671000000
H    -5.707000000    -0.323000000     3.916000000
H    -5.757000000    -1.330000000     5.045000000
O    -4.300000000     0.115000000    -3.059000000
H    -3.602000000    -0.541000000    -3.060000000
H    -4.674000000     0.068000000    -3.938000000
O    -0.317000000    -4.674000000     1.656000000
H    -0.078000000    -5.295000000     2.344000000
H     0.516000000    -4.428000000     1.255000000
O    -5.499000000     3.483000000    -0.339000000
H    -4.683000000     3.517000000    -0.838000000
H    -5.979000000     2.745000000    -0.714000000
