158
-3059.32395
C     0.503000000    -0.499000000     1.285000000
H     0.903000000    -0.977000000     2.176000000
C     1.209000000    -0.379000000     0.048000000
H     2.130000000    -0.936000000    -0.106000000
C     0.723000000     0.303000000    -1.036000000
H     1.199000000     0.319000000    -2.021000000
C    -0.579000000     0.787000000    -0.882000000
H    -1.022000000     1.212000000    -1.779000000
C    -1.390000000     0.556000000     0.272000000
H    -2.434000000     0.857000000     0.242000000
C    -0.871000000    -0.121000000     1.361000000
C    -1.666000000    -0.444000000     2.610000000
O    -1.151000000    -1.081000000     3.491000000
O    -2.890000000    -0.452000000     2.497000000
O     7.223000000     1.191000000     0.039000000
H     6.596000000     0.867000000     0.685000000
H     6.728000000     1.226000000    -0.779000000
O     0.020000000    -1.056000000    -3.955000000
H     0.120000000    -1.131000000    -3.006000000
H     0.748000000    -1.563000000    -4.314000000
O     3.670000000     1.951000000     1.109000000
H     3.193000000     2.000000000     0.280000000
H     4.464000000     2.464000000     0.959000000
O     0.217000000     3.034000000     0.903000000
H     0.075000000     2.096000000     0.776000000
H     0.965000000     3.084000000     1.499000000
O    -7.574000000    -0.714000000     1.902000000
H    -6.747000000    -0.235000000     1.863000000
H    -7.794000000    -0.736000000     2.833000000
O     3.137000000     1.066000000    -3.406000000
H     3.057000000     1.633000000    -2.639000000
H     3.565000000     0.276000000    -3.075000000
O     5.191000000     1.565000000    -5.169000000
H     5.803000000     1.930000000    -4.529000000
H     4.366000000     1.480000000    -4.690000000
O     5.481000000     3.858000000    -2.616000000
H     6.136000000     3.160000000    -2.636000000
H     5.887000000     4.581000000    -3.094000000
O     5.010000000    -1.150000000    -2.238000000
H     4.228000000    -1.483000000    -1.798000000
H     5.008000000    -1.583000000    -3.091000000
O     3.217000000    -2.752000000    -1.158000000
H     3.476000000    -3.606000000    -0.813000000
H     2.266000000    -2.811000000    -1.254000000
O     4.674000000    -2.347000000    -4.795000000
H     4.920000000    -3.237000000    -5.046000000
H     3.749000000    -2.279000000    -5.030000000
O    -1.717000000    -3.732000000    -1.043000000
H    -2.326000000    -3.604000000    -0.316000000
H    -2.183000000    -3.397000000    -1.809000000
O     1.924000000    -2.934000000    -4.693000000
H     2.502000000    -3.577000000    -5.103000000
H     1.710000000    -3.314000000    -3.841000000
O    -4.911000000    -1.362000000    -2.383000000
H    -5.744000000    -1.139000000    -1.967000000
H    -5.156000000    -1.891000000    -3.142000000
O    -6.230000000    -3.248000000     2.359000000
H    -6.478000000    -2.330000000     2.244000000
H    -6.744000000    -3.719000000     1.704000000
O    -2.289000000    -1.804000000     6.519000000
H    -1.739000000    -1.406000000     5.845000000
H    -2.576000000    -2.633000000     6.135000000
O     2.380000000     5.678000000    -1.557000000
H     1.472000000     5.976000000    -1.612000000
H     2.809000000     6.074000000    -2.316000000
O     0.554000000    -1.352000000     5.394000000
H    -0.018000000    -1.109000000     4.666000000
H     1.146000000    -2.007000000     5.024000000
O    -5.028000000     3.222000000     4.482000000
H    -4.717000000     2.318000000     4.526000000
H    -4.236000000     3.741000000     4.342000000
O     5.459000000    -0.032000000     1.682000000
H     5.458000000    -0.571000000     2.472000000
H     4.552000000     0.258000000     1.588000000
O     0.886000000    -4.765000000     1.731000000
H     0.916000000    -5.062000000     2.640000000
H     0.368000000    -3.960000000     1.759000000
O    -0.259000000    -5.324000000     4.240000000
H    -1.081000000    -4.847000000     4.119000000
H     0.227000000    -4.804000000     4.880000000
O     1.926000000     2.855000000     3.169000000
H     2.595000000     2.368000000     2.688000000
H     1.759000000     2.326000000     3.950000000
O     0.046000000    -3.688000000    -6.464000000
H     0.814000000    -3.274000000    -6.071000000
H    -0.375000000    -4.150000000    -5.738000000
O     3.652000000     4.450000000    -6.185000000
H     4.188000000     3.803000000    -6.644000000
H     2.890000000     3.957000000    -5.881000000
O     4.462000000    -4.862000000     1.101000000
H     4.590000000    -5.072000000     2.026000000
H     5.218000000    -4.321000000     0.871000000
O    -4.591000000    -0.491000000     6.972000000
H    -4.198000000     0.261000000     7.416000000
H    -3.919000000    -1.171000000     7.012000000
O     1.577000000     0.863000000    -6.654000000
H     1.982000000     0.012000000    -6.824000000
H     1.054000000     1.040000000    -7.435000000
O    -6.897000000    -0.771000000    -0.900000000
H    -7.560000000    -0.944000000    -0.232000000
H    -6.163000000    -0.392000000    -0.416000000
O     6.701000000    -3.061000000     0.136000000
H     6.346000000    -2.215000000    -0.137000000
H     7.284000000    -3.318000000    -0.578000000
O    -1.581000000     2.725000000     4.755000000
H    -2.439000000     2.311000000     4.659000000
H    -1.772000000     3.662000000     4.804000000
O     3.217000000     3.056000000    -1.459000000
H     4.015000000     3.475000000    -1.780000000
H     2.610000000     3.781000000    -1.308000000
O    -2.086000000    -3.550000000     3.475000000
H    -2.002000000    -2.651000000     3.793000000
H    -2.280000000    -3.457000000     2.543000000
O    -4.949000000     3.202000000    -0.554000000
H    -4.116000000     3.560000000    -0.248000000
H    -4.708000000     2.603000000    -1.260000000
O    -2.615000000    -2.664000000    -3.462000000
H    -2.324000000    -2.075000000    -4.158000000
H    -3.372000000    -2.224000000    -3.077000000
O    -2.345000000     3.833000000     1.148000000
H    -2.569000000     4.199000000     2.004000000
H    -1.451000000     3.509000000     1.253000000
O     0.766000000    -3.779000000    -2.216000000
H    -0.132000000    -3.849000000    -1.892000000
H     1.229000000    -4.503000000    -1.796000000
O     0.048000000     5.004000000    -4.672000000
H     0.555000000     5.474000000    -4.010000000
H     0.626000000     4.297000000    -4.958000000
O    -4.860000000     0.620000000     1.054000000
H    -4.157000000     0.190000000     1.541000000
H    -4.492000000     1.468000000     0.803000000
O     0.604000000     1.518000000     6.293000000
H     0.712000000     0.567000000     6.320000000
H    -0.126000000     1.659000000     5.691000000
O    -3.744000000    -3.086000000     1.217000000
H    -3.540000000    -2.153000000     1.287000000
H    -4.530000000    -3.200000000     1.750000000
O     6.878000000     1.097000000    -2.700000000
H     6.446000000     0.243000000    -2.704000000
H     7.783000000     0.907000000    -2.453000000
O     2.134000000    -3.351000000     4.598000000
H     2.581000000    -3.817000000     3.891000000
H     2.613000000    -3.599000000     5.389000000
O     1.835000000     3.001000000    -4.879000000
H     2.354000000     2.580000000    -4.193000000
H     1.761000000     2.337000000    -5.564000000
O    -3.944000000     0.740000000     4.586000000
H    -4.138000000     0.122000000     5.291000000
H    -3.551000000     0.203000000     3.898000000
O    -1.282000000     0.415000000    -5.824000000
H    -0.687000000     0.039000000    -5.176000000
H    -1.918000000    -0.279000000    -5.997000000
O     2.320000000    -5.520000000    -0.554000000
H     1.821000000    -5.239000000     0.214000000
H     3.101000000    -5.939000000    -0.191000000
O    -4.039000000     1.354000000    -2.304000000
H    -3.164000000     1.251000000    -2.679000000
H    -4.458000000     0.504000000    -2.437000000
