158
-3055.61187
C     0.566000000    -0.681000000     1.184000000
H     0.973000000    -1.299000000     1.979000000
C     1.348000000    -0.286000000     0.130000000
H     2.431000000    -0.329000000     0.047000000
C     0.706000000     0.400000000    -0.894000000
H     1.276000000     0.740000000    -1.775000000
C    -0.688000000     0.508000000    -0.939000000
H    -1.195000000     1.060000000    -1.726000000
C    -1.402000000     0.151000000     0.135000000
H    -2.477000000     0.309000000     0.101000000
C    -0.839000000    -0.588000000     1.160000000
C    -1.730000000    -1.107000000     2.299000000
O    -1.285000000    -1.569000000     3.290000000
O    -2.968000000    -1.106000000     2.192000000
O    -0.956000000     5.303000000    -4.885000000
H    -1.306000000     4.501000000    -5.275000000
H    -0.006000000     5.189000000    -4.914000000
O     5.908000000     2.687000000    -0.805000000
H     5.359000000     2.839000000    -1.575000000
H     6.764000000     3.039000000    -1.049000000
O    -0.627000000    -2.728000000    -4.415000000
H    -0.451000000    -2.744000000    -3.474000000
H    -0.224000000    -3.530000000    -4.747000000
O     3.241000000     2.836000000     0.524000000
H     2.975000000     2.917000000    -0.392000000
H     3.640000000     3.681000000     0.733000000
O     0.532000000     2.985000000     1.243000000
H     0.388000000     2.111000000     1.605000000
H     1.425000000     2.959000000     0.900000000
O    -6.976000000     2.226000000     1.716000000
H    -6.080000000     1.900000000     1.805000000
H    -7.473000000     1.741000000     2.375000000
O     4.540000000     0.994000000    -4.076000000
H     4.233000000     0.095000000    -3.959000000
H     5.356000000     1.035000000    -3.577000000
O     4.930000000     4.455000000    -3.064000000
H     4.974000000     5.395000000    -2.886000000
H     5.728000000     4.268000000    -3.558000000
O     2.792000000    -1.156000000    -3.953000000
H     2.413000000    -1.832000000    -3.391000000
H     3.252000000    -1.642000000    -4.637000000
O     1.826000000    -2.983000000    -2.170000000
H     2.442000000    -2.745000000    -1.478000000
H     0.965000000    -2.928000000    -1.754000000
O    -2.616000000    -3.866000000    -0.207000000
H    -2.221000000    -3.981000000     0.657000000
H    -3.555000000    -3.800000000    -0.035000000
O     6.894000000    -1.010000000     2.337000000
H     6.162000000    -0.715000000     1.796000000
H     6.632000000    -1.879000000     2.642000000
O    -6.281000000    -3.033000000     3.608000000
H    -5.730000000    -3.632000000     4.111000000
H    -5.997000000    -2.160000000     3.880000000
O    -4.850000000    -0.650000000     4.738000000
H    -4.840000000     0.039000000     4.073000000
H    -3.926000000    -0.845000000     4.893000000
O    -1.993000000    -1.402000000     5.827000000
H    -1.737000000    -1.438000000     4.905000000
H    -2.001000000    -2.316000000     6.110000000
O     5.360000000     0.337000000     0.540000000
H     4.527000000     0.722000000     0.812000000
H     5.786000000     1.026000000     0.029000000
O     1.777000000    -3.606000000     1.840000000
H     2.457000000    -2.957000000     2.023000000
H     1.181000000    -3.546000000     2.587000000
O     0.497000000    -2.890000000     4.384000000
H    -0.177000000    -2.320000000     4.013000000
H     0.489000000    -2.692000000     5.320000000
O    -3.965000000     2.683000000    -2.967000000
H    -3.721000000     3.202000000    -2.201000000
H    -4.699000000     2.146000000    -2.668000000
O    -0.625000000     0.897000000     4.542000000
H     0.197000000     0.578000000     4.917000000
H    -1.037000000     0.116000000     4.172000000
O    -1.422000000     3.305000000     4.019000000
H    -0.931000000     2.504000000     4.200000000
H    -1.930000000     3.459000000     4.816000000
O     0.898000000    -4.995000000     6.191000000
H     0.558000000    -4.547000000     5.416000000
H     1.848000000    -4.917000000     6.115000000
O     4.054000000    -2.528000000    -0.242000000
H     4.058000000    -2.161000000     0.642000000
H     4.968000000    -2.483000000    -0.524000000
O     1.559000000     0.653000000    -6.220000000
H     1.935000000    -0.057000000    -5.700000000
H     2.154000000     0.746000000    -6.964000000
O    -5.027000000    -0.312000000    -0.144000000
H    -5.398000000    -1.013000000     0.394000000
H    -4.692000000     0.323000000     0.489000000
O     2.342000000     3.681000000    -1.799000000
H     2.701000000     4.534000000    -2.041000000
H     2.334000000     3.184000000    -2.617000000
O    -2.971000000    -3.808000000     3.431000000
H    -2.424000000    -3.028000000     3.330000000
H    -2.507000000    -4.490000000     2.945000000
O    -3.534000000     4.226000000    -0.662000000
H    -2.960000000     3.791000000    -0.032000000
H    -2.988000000     4.906000000    -1.055000000
O    -3.040000000    -1.007000000    -3.284000000
H    -2.204000000    -0.674000000    -3.611000000
H    -3.634000000    -0.258000000    -3.340000000
O    -1.951000000     3.419000000     1.393000000
H    -1.945000000     3.439000000     2.350000000
H    -1.029000000     3.340000000     1.149000000
O    -0.757000000    -2.558000000    -1.734000000
H    -0.903000000    -1.627000000    -1.568000000
H    -1.390000000    -3.003000000    -1.171000000
O     1.735000000     5.077000000    -4.834000000
H     2.647000000     5.347000000    -4.938000000
H     1.783000000     4.147000000    -4.615000000
O    -4.292000000     1.345000000     1.959000000
H    -3.835000000     0.531000000     2.172000000
H    -3.603000000     1.931000000     1.646000000
O     4.496000000     0.455000000     3.831000000
H     5.408000000     0.503000000     4.120000000
H     4.194000000     1.363000000     3.836000000
O    -1.432000000    -5.557000000     1.903000000
H    -1.445000000    -6.384000000     2.385000000
H    -1.103000000    -5.790000000     1.035000000
O     4.089000000    -2.047000000     2.493000000
H     4.253000000    -2.763000000     3.107000000
H     4.307000000    -1.255000000     2.985000000
O    -1.727000000     0.489000000     7.684000000
H    -1.768000000    -0.313000000     7.162000000
H    -2.546000000     0.495000000     8.179000000
O    -4.977000000    -2.925000000     1.193000000
H    -4.306000000    -2.391000000     1.617000000
H    -5.631000000    -3.075000000     1.876000000
O     2.114000000    -0.319000000     5.422000000
H     2.938000000    -0.554000000     4.995000000
H     2.359000000     0.343000000     6.067000000
O     2.317000000     2.565000000    -4.185000000
H     3.058000000     1.994000000    -4.392000000
H     1.606000000     2.246000000    -4.741000000
O    -1.955000000    -4.267000000     6.749000000
H    -2.453000000    -4.736000000     7.419000000
H    -1.245000000    -4.865000000     6.516000000
O    -4.392000000     2.023000000     4.611000000
H    -4.459000000     2.978000000     4.608000000
H    -4.144000000     1.797000000     3.715000000
O    -4.902000000    -2.924000000    -1.846000000
H    -4.509000000    -2.097000000    -2.125000000
H    -5.303000000    -2.726000000    -1.000000000
O    -4.768000000    -5.063000000     4.964000000
H    -4.732000000    -4.759000000     5.871000000
H    -4.107000000    -4.541000000     4.510000000
O    -6.225000000     0.957000000    -2.139000000
H    -5.720000000     0.529000000    -1.448000000
H    -7.138000000     0.770000000    -1.919000000
O    -1.026000000    -0.071000000    -5.516000000
H    -0.166000000     0.158000000    -5.867000000
H    -0.964000000    -1.005000000    -5.318000000
O     1.245000000    -6.072000000     0.339000000
H     1.526000000    -5.193000000     0.595000000
H     1.529000000    -6.634000000     1.060000000
O    -1.781000000     2.422000000    -5.221000000
H    -2.633000000     2.525000000    -4.797000000
H    -1.565000000     1.497000000    -5.105000000
