158
-3060.10096
C     0.923000000    -0.966000000     0.607000000
H     1.687000000    -1.659000000     0.950000000
C     1.008000000    -0.446000000    -0.678000000
H     1.844000000    -0.766000000    -1.294000000
C     0.083000000     0.482000000    -1.129000000
H     0.029000000     0.970000000    -2.179000000
C    -0.978000000     0.851000000    -0.256000000
H    -1.646000000     1.646000000    -0.581000000
C    -1.119000000     0.253000000     0.948000000
H    -1.813000000     0.555000000     1.727000000
C    -0.159000000    -0.584000000     1.436000000
C    -0.308000000    -1.159000000     2.811000000
O     0.640000000    -1.856000000     3.197000000
O    -1.298000000    -1.082000000     3.473000000
O    -0.297000000     1.294000000    -6.536000000
H    -0.307000000     2.110000000    -6.035000000
H     0.452000000     0.810000000    -6.189000000
O     0.446000000     3.302000000     0.783000000
H     0.174000000     2.493000000     0.351000000
H     1.142000000     3.031000000     1.382000000
O     0.204000000     6.181000000     0.699000000
H     0.127000000     5.234000000     0.818000000
H     1.007000000     6.416000000     1.165000000
O    -5.110000000     4.636000000    -3.327000000
H    -5.235000000     5.153000000    -2.532000000
H    -4.795000000     3.788000000    -3.014000000
O     3.725000000     2.405000000    -3.156000000
H     3.435000000     2.205000000    -2.266000000
H     4.533000000     2.906000000    -3.038000000
O     1.254000000    -2.758000000     5.610000000
H     1.479000000    -3.688000000     5.625000000
H     1.106000000    -2.562000000     4.684000000
O     3.552000000    -3.684000000    -1.124000000
H     2.962000000    -4.027000000    -1.794000000
H     3.412000000    -4.253000000    -0.367000000
O    -3.361000000    -2.358000000    -0.232000000
H    -3.310000000    -1.731000000     0.489000000
H    -3.002000000    -3.168000000     0.130000000
O     3.624000000    -1.810000000    -4.052000000
H     4.505000000    -1.488000000    -4.239000000
H     3.430000000    -1.482000000    -3.174000000
O    -2.694000000     0.769000000    -7.647000000
H    -1.745000000     0.802000000    -7.523000000
H    -3.055000000     0.988000000    -6.788000000
O    -2.849000000     4.853000000    -1.528000000
H    -3.310000000     4.024000000    -1.649000000
H    -3.128000000     5.160000000    -0.665000000
O    -5.377000000    -2.218000000     4.348000000
H    -5.950000000    -1.866000000     5.029000000
H    -5.563000000    -3.157000000     4.341000000
O    -3.373000000    -2.502000000     8.266000000
H    -3.406000000    -2.325000000     7.326000000
H    -3.393000000    -3.457000000     8.331000000
O    -3.025000000    -1.561000000     5.587000000
H    -3.788000000    -1.902000000     5.120000000
H    -2.396000000    -1.350000000     4.897000000
O     4.026000000     5.595000000    -1.319000000
H     3.217000000     5.737000000    -1.811000000
H     4.481000000     6.436000000    -1.358000000
O     3.364000000     0.259000000     5.889000000
H     3.864000000     1.072000000     5.820000000
H     3.228000000    -0.017000000     4.983000000
O     2.939000000    -0.504000000     3.409000000
H     2.720000000     0.257000000     2.870000000
H     2.119000000    -0.993000000     3.475000000
O     5.705000000    -1.227000000     3.001000000
H     4.846000000    -0.808000000     2.972000000
H     5.677000000    -1.881000000     2.303000000
O     0.688000000     2.907000000     4.262000000
H     0.410000000     2.137000000     4.757000000
H     1.273000000     2.559000000     3.588000000
O    -0.233000000     5.233000000    -2.483000000
H     0.127000000     4.691000000    -1.781000000
H    -1.159000000     5.329000000    -2.261000000
O    -2.549000000     5.404000000     1.444000000
H    -2.321000000     5.002000000     2.282000000
H    -1.707000000     5.592000000     1.031000000
O    -1.926000000     4.067000000     3.756000000
H    -1.039000000     3.743000000     3.600000000
H    -2.474000000     3.283000000     3.736000000
O    -2.624000000     1.645000000     6.591000000
H    -2.931000000     0.758000000     6.407000000
H    -1.670000000     1.580000000     6.560000000
O     2.045000000     5.930000000    -3.326000000
H     1.111000000     5.723000000    -3.309000000
H     2.098000000     6.758000000    -3.803000000
O    -0.501000000    -4.427000000     3.126000000
H    -0.713000000    -3.572000000     3.501000000
H     0.443000000    -4.519000000     3.259000000
O    -0.877000000     3.696000000    -5.010000000
H    -1.831000000     3.616000000    -4.996000000
H    -0.670000000     4.233000000    -4.246000000
O    -1.841000000    -2.691000000    -2.580000000
H    -2.448000000    -2.459000000    -1.877000000
H    -1.766000000    -3.644000000    -2.527000000
O    -3.292000000     0.016000000    -3.242000000
H    -2.628000000    -0.314000000    -2.636000000
H    -2.899000000    -0.091000000    -4.108000000
O     0.851000000    -0.746000000     7.255000000
H     0.964000000    -1.522000000     6.707000000
H     1.678000000    -0.270000000     7.170000000
O     4.321000000     5.103000000    -4.831000000
H     3.805000000     4.742000000    -4.110000000
H     4.226000000     6.052000000    -4.742000000
O     1.196000000    -0.743000000    -5.447000000
H     1.720000000    -0.860000000    -6.240000000
H     1.818000000    -0.863000000    -4.730000000
O     3.955000000     1.242000000    -0.051000000
H     4.597000000     1.835000000    -0.440000000
H     4.156000000     0.387000000    -0.432000000
O     4.604000000    -0.976000000    -1.369000000
H     5.246000000    -1.497000000    -1.851000000
H     4.111000000    -1.616000000    -0.856000000
O     7.234000000    -0.414000000    -0.357000000
H     7.435000000    -1.333000000    -0.181000000
H     6.278000000    -0.372000000    -0.354000000
O    -1.998000000    -4.648000000     0.765000000
H    -1.541000000    -5.369000000     0.331000000
H    -1.600000000    -4.602000000     1.634000000
O    -0.528000000     0.633000000     5.305000000
H    -0.593000000    -0.074000000     4.663000000
H    -0.083000000     0.237000000     6.054000000
O    -3.629000000    -0.790000000     2.276000000
H    -4.125000000    -1.064000000     3.047000000
H    -2.724000000    -0.728000000     2.582000000
O    -1.651000000    -1.410000000    -5.056000000
H    -1.330000000    -1.778000000    -4.233000000
H    -0.871000000    -1.056000000    -5.481000000
O     2.794000000     2.070000000     2.495000000
H     3.082000000     1.846000000     1.610000000
H     3.485000000     2.638000000     2.835000000
O    -5.905000000    -1.532000000     0.631000000
H    -5.046000000    -1.713000000     0.250000000
H    -6.226000000    -0.771000000     0.147000000
O     2.665000000     2.353000000    -6.138000000
H     2.989000000     2.419000000    -5.240000000
H     3.175000000     1.642000000    -6.525000000
O    -3.326000000     1.763000000     3.757000000
H    -4.232000000     1.632000000     4.037000000
H    -2.829000000     1.102000000     4.238000000
O     2.717000000    -4.533000000    -3.686000000
H     3.117000000    -3.779000000    -4.119000000
H     1.860000000    -4.621000000    -4.103000000
O    -4.497000000     1.799000000     1.243000000
H    -4.006000000     2.241000000     1.935000000
H    -4.580000000     0.895000000     1.549000000
O    -4.246000000     1.539000000    -5.453000000
H    -5.182000000     1.736000000    -5.481000000
H    -4.083000000     1.278000000    -4.546000000
O    -4.345000000     2.311000000    -1.792000000
H    -4.027000000     1.457000000    -2.084000000
H    -4.661000000     2.158000000    -0.901000000
O     0.287000000    -4.043000000    -4.748000000
H    -0.528000000    -4.396000000    -4.391000000
H     0.134000000    -3.100000000    -4.807000000
O     6.405000000    -3.088000000     0.328000000
H     7.221000000    -3.564000000     0.479000000
H     5.741000000    -3.771000000     0.241000000
