158
-3033.77565
C     0.622000000    -0.054000000     1.325000000
H     1.145000000     0.035000000     2.274000000
C     1.262000000     0.097000000     0.168000000
H     2.346000000     0.178000000     0.190000000
C     0.563000000     0.190000000    -1.042000000
H     1.195000000     0.333000000    -1.951000000
C    -0.858000000     0.022000000    -1.158000000
H    -1.262000000    -0.098000000    -2.160000000
C    -1.525000000    -0.143000000     0.081000000
H    -2.557000000    -0.483000000     0.107000000
C    -0.804000000    -0.161000000     1.325000000
C    -1.565000000    -0.398000000     2.684000000
O    -0.991000000    -0.129000000     3.705000000
O    -2.670000000    -0.836000000     2.655000000
O     0.456000000     1.395000000    -4.978000000
H     1.128000000     0.969000000    -4.445000000
H     0.948000000     1.876000000    -5.644000000
O     3.666000000    -2.473000000    -4.913000000
H     2.759000000    -2.765000000    -4.825000000
H     4.135000000    -2.936000000    -4.219000000
O    -0.980000000    -2.696000000    -2.693000000
H    -1.484000000    -3.479000000    -2.470000000
H    -0.209000000    -2.739000000    -2.127000000
O     3.398000000     0.367000000     3.803000000
H     3.966000000    -0.143000000     3.226000000
H     3.955000000     0.596000000     4.547000000
O    -1.427000000     0.706000000     6.903000000
H    -1.469000000     1.607000000     6.581000000
H    -0.582000000     0.380000000     6.593000000
O     3.683000000    -1.218000000    -1.710000000
H     4.622000000    -1.204000000    -1.897000000
H     3.391000000    -0.324000000    -1.888000000
O    -1.836000000    -2.754000000     8.071000000
H    -1.074000000    -2.254000000     7.776000000
H    -2.491000000    -2.090000000     8.282000000
O     5.308000000     0.674000000     0.429000000
H     5.214000000     0.396000000     1.340000000
H     5.502000000    -0.133000000    -0.049000000
O     1.154000000    -3.304000000    -4.642000000
H     0.296000000    -2.974000000    -4.378000000
H     1.036000000    -4.252000000    -4.709000000
O     1.262000000     3.496000000     2.368000000
H     1.433000000     4.435000000     2.446000000
H     1.710000000     3.237000000     1.564000000
O     2.553000000     3.667000000    -2.232000000
H     2.928000000     4.495000000    -1.931000000
H     1.657000000     3.674000000    -1.894000000
O    -7.003000000    -1.513000000    -0.084000000
H    -6.437000000    -1.971000000     0.538000000
H    -6.398000000    -1.027000000    -0.644000000
O    -1.114000000     4.142000000    -3.028000000
H    -1.025000000     3.472000000    -2.350000000
H    -0.312000000     4.067000000    -3.545000000
O    -4.948000000    -5.135000000     2.042000000
H    -5.617000000    -5.819000000     2.052000000
H    -5.415000000    -4.349000000     1.757000000
O     0.715000000    -1.931000000     7.336000000
H     0.940000000    -2.813000000     7.041000000
H     0.990000000    -1.361000000     6.618000000
O     1.001000000     0.233000000     5.455000000
H     0.279000000     0.115000000     4.838000000
H     1.746000000     0.479000000     4.907000000
O    -0.546000000    -2.861000000     4.368000000
H    -1.368000000    -3.230000000     4.046000000
H    -0.611000000    -1.926000000     4.174000000
O    -3.583000000     3.107000000     6.444000000
H    -4.175000000     2.376000000     6.626000000
H    -3.604000000     3.200000000     5.491000000
O    -6.751000000    -0.446000000     3.728000000
H    -6.711000000    -1.186000000     4.334000000
H    -7.684000000    -0.246000000     3.655000000
O     5.359000000    -1.274000000     2.731000000
H     6.248000000    -1.584000000     2.903000000
H     4.852000000    -2.072000000     2.583000000
O    -0.701000000    -0.766000000    -7.028000000
H    -0.178000000    -0.412000000    -6.309000000
H    -1.464000000    -1.156000000    -6.601000000
O     5.520000000     3.019000000    -5.690000000
H     5.626000000     3.572000000    -4.916000000
H     4.978000000     2.289000000    -5.392000000
O    -0.736000000     5.295000000     3.910000000
H    -1.434000000     5.236000000     3.257000000
H    -0.507000000     4.385000000     4.099000000
O     2.075000000    -3.811000000     4.306000000
H     1.893000000    -4.251000000     5.137000000
H     1.210000000    -3.610000000     3.948000000
O    -3.731000000    -1.867000000     5.358000000
H    -3.301000000    -1.337000000     4.687000000
H    -3.126000000    -1.851000000     6.100000000
O     1.267000000    -2.545000000    -1.316000000
H     2.125000000    -2.202000000    -1.566000000
H     0.837000000    -1.813000000    -0.873000000
O    -5.066000000    -1.870000000     1.763000000
H    -4.200000000    -1.496000000     1.923000000
H    -5.662000000    -1.324000000     2.275000000
O    -3.940000000     1.357000000     1.833000000
H    -4.838000000     1.322000000     1.504000000
H    -3.626000000     0.455000000     1.769000000
O     2.882000000     2.972000000     5.123000000
H     3.082000000     3.596000000     4.426000000
H     2.680000000     2.156000000     4.664000000
O     4.025000000     1.523000000    -2.894000000
H     4.897000000     1.841000000    -2.660000000
H     3.442000000     2.254000000    -2.689000000
O    -2.450000000    -1.510000000    -4.615000000
H    -1.899000000    -1.840000000    -3.904000000
H    -3.170000000    -2.138000000    -4.670000000
O    -4.160000000     2.258000000    -2.839000000
H    -3.538000000     1.816000000    -3.417000000
H    -4.290000000     3.118000000    -3.240000000
O    -0.485000000     2.993000000    -0.556000000
H    -0.280000000     2.086000000    -0.327000000
H    -1.402000000     3.102000000    -0.306000000
O    -2.311000000    -4.926000000     0.386000000
H    -2.964000000    -5.139000000     1.053000000
H    -2.790000000    -4.969000000    -0.441000000
O     1.245000000     4.269000000    -4.651000000
H     2.058000000     4.123000000    -4.168000000
H     1.461000000     4.046000000    -5.557000000
O    -0.053000000     5.516000000    -0.521000000
H    -0.812000000     5.824000000    -1.017000000
H    -0.186000000     4.571000000    -0.444000000
O     3.648000000     0.828000000    -5.544000000
H     3.475000000    -0.069000000    -5.828000000
H     3.801000000     0.756000000    -4.602000000
O    -3.098000000     3.007000000    -0.222000000
H    -3.442000000     2.346000000     0.379000000
H    -3.423000000     2.742000000    -1.082000000
O    -0.114000000     3.450000000     6.462000000
H    -0.238000000     3.212000000     5.543000000
H    -0.497000000     4.324000000     6.537000000
O    -6.237000000    -2.683000000     5.085000000
H    -6.051000000    -3.337000000     4.410000000
H    -5.389000000    -2.276000000     5.263000000
O    -3.492000000     3.316000000     3.631000000
H    -2.544000000     3.211000000     3.711000000
H    -3.756000000     2.642000000     3.005000000
O    -2.832000000    -3.967000000     3.217000000
H    -2.753000000    -3.058000000     2.929000000
H    -3.548000000    -4.323000000     2.691000000
O     0.408000000    -4.990000000    -0.055000000
H     0.767000000    -4.215000000    -0.486000000
H    -0.481000000    -4.736000000     0.193000000
O    -2.328000000     1.212000000    -4.711000000
H    -2.295000000     0.256000000    -4.744000000
H    -1.431000000     1.489000000    -4.899000000
O     5.521000000     3.238000000     1.995000000
H     5.292000000     2.610000000     1.309000000
H     6.195000000     2.794000000     2.510000000
O    -0.685000000     2.455000000     3.835000000
H    -0.814000000     1.508000000     3.786000000
H    -0.060000000     2.648000000     3.136000000
O     2.205000000     2.699000000    -6.849000000
H     2.995000000     2.314000000    -6.468000000
H     2.050000000     2.189000000    -7.645000000
O    -5.460000000    -0.214000000    -1.956000000
H    -4.973000000     0.569000000    -2.210000000
H    -4.993000000    -0.935000000    -2.379000000
