158
-3030.74796
C    -1.391000000     0.192000000     0.202000000
H    -2.389000000     0.121000000     0.627000000
C    -0.403000000     0.216000000     1.158000000
H    -0.626000000     0.393000000     2.207000000
C     0.905000000     0.213000000     0.830000000
H     1.701000000     0.258000000     1.656000000
C     1.275000000     0.029000000    -0.522000000
H     2.336000000    -0.016000000    -0.753000000
C     0.257000000    -0.194000000    -1.475000000
H     0.424000000    -0.633000000    -2.455000000
C    -1.099000000    -0.200000000    -1.117000000
C    -2.248000000    -0.547000000    -2.176000000
O    -1.946000000    -1.110000000    -3.218000000
O    -3.378000000    -0.233000000    -1.920000000
O    -4.800000000    -3.597000000    -0.814000000
H    -4.488000000    -2.695000000    -0.890000000
H    -4.066000000    -4.072000000    -0.425000000
O    -6.171000000    -0.515000000     3.213000000
H    -6.836000000    -0.487000000     3.901000000
H    -6.247000000    -1.394000000     2.842000000
O    -3.506000000    -2.396000000     2.804000000
H    -3.291000000    -1.708000000     3.434000000
H    -3.906000000    -1.932000000     2.069000000
O     3.729000000    -0.530000000     2.905000000
H     3.848000000    -0.164000000     2.029000000
H     3.098000000    -1.240000000     2.785000000
O     5.570000000    -3.027000000     4.345000000
H     6.008000000    -2.636000000     3.589000000
H     5.016000000    -3.714000000     3.973000000
O     2.432000000     3.925000000    -3.635000000
H     2.967000000     3.929000000    -2.841000000
H     2.626000000     3.084000000    -4.049000000
O    -0.683000000    -6.255000000    -3.548000000
H    -0.631000000    -5.390000000    -3.143000000
H    -0.779000000    -6.076000000    -4.484000000
O    -0.635000000     1.262000000     6.052000000
H    -1.446000000     1.054000000     6.516000000
H    -0.847000000     2.039000000     5.534000000
O    -4.468000000    -1.178000000     0.586000000
H    -4.875000000    -0.366000000     0.889000000
H    -3.968000000    -0.920000000    -0.188000000
O    -5.092000000     3.082000000     1.772000000
H    -4.738000000     3.725000000     2.387000000
H    -5.418000000     2.374000000     2.327000000
O    -5.992000000    -2.190000000    -5.182000000
H    -6.612000000    -2.744000000    -4.708000000
H    -5.995000000    -2.536000000    -6.075000000
O    -3.149000000    -2.243000000    -5.375000000
H    -2.780000000    -1.996000000    -4.527000000
H    -4.096000000    -2.209000000    -5.243000000
O     4.706000000     4.617000000     5.733000000
H     3.902000000     4.270000000     5.347000000
H     4.859000000     4.066000000     6.501000000
O    -6.925000000     2.979000000    -0.412000000
H    -6.521000000     2.787000000     0.434000000
H    -6.244000000     2.780000000    -1.054000000
O     2.619000000    -4.294000000     5.430000000
H     3.064000000    -4.328000000     6.277000000
H     2.837000000    -3.430000000     5.079000000
O     1.965000000    -2.630000000     3.239000000
H     1.240000000    -3.206000000     3.483000000
H     2.561000000    -3.192000000     2.745000000
O     4.323000000    -1.075000000    -2.569000000
H     4.880000000    -1.610000000    -2.004000000
H     3.797000000    -1.708000000    -3.058000000
O    -1.927000000    -2.620000000    -7.759000000
H    -2.614000000    -2.803000000    -7.118000000
H    -1.919000000    -1.665000000    -7.834000000
O     2.511000000    -2.325000000    -4.297000000
H     2.358000000    -3.023000000    -4.934000000
H     1.645000000    -2.141000000    -3.931000000
O    -0.809000000    -2.118000000     5.381000000
H    -0.017000000    -1.598000000     5.518000000
H    -1.500000000    -1.470000000     5.244000000
O    -7.340000000     1.119000000    -5.293000000
H    -6.453000000     0.865000000    -5.038000000
H    -7.237000000     1.986000000    -5.687000000
O     1.252000000     4.274000000     0.653000000
H     1.454000000     5.086000000     0.186000000
H     1.140000000     4.544000000     1.564000000
O     4.219000000     0.832000000     0.564000000
H     4.195000000     0.372000000    -0.275000000
H     5.056000000     1.297000000     0.558000000
O     1.613000000    -0.564000000     5.988000000
H     2.204000000    -0.275000000     5.292000000
H     1.019000000     0.175000000     6.120000000
O    -3.020000000    -0.613000000     4.810000000
H    -3.142000000     0.284000000     4.501000000
H    -3.749000000    -0.761000000     5.412000000
O     6.483000000    -1.839000000     2.107000000
H     5.606000000    -2.058000000     1.791000000
H     6.526000000    -0.884000000     2.052000000
O     4.088000000    -2.829000000     0.838000000
H     4.057000000    -3.702000000     1.229000000
H     3.552000000    -2.902000000     0.048000000
O     2.486000000     2.497000000     2.604000000
H     3.047000000     1.963000000     2.041000000
H     1.800000000     2.820000000     2.020000000
O    -0.263000000    -0.444000000    -5.256000000
H    -0.759000000    -0.759000000    -4.501000000
H    -0.930000000    -0.214000000    -5.902000000
O     2.491000000    -3.241000000    -1.071000000
H     2.373000000    -3.788000000    -1.848000000
H     1.604000000    -3.096000000    -0.743000000
O    -2.588000000    -4.511000000     1.019000000
H    -2.721000000    -3.826000000     1.675000000
H    -1.640000000    -4.531000000     0.883000000
O    -3.639000000     2.076000000     4.185000000
H    -4.216000000     2.798000000     4.436000000
H    -2.775000000     2.478000000     4.100000000
O    -1.327000000     3.588000000     4.759000000
H    -0.967000000     4.259000000     5.337000000
H    -1.609000000     4.068000000     3.980000000
O    -3.267000000     4.384000000     0.322000000
H    -2.534000000     3.996000000    -0.155000000
H    -3.906000000     3.675000000     0.398000000
O    -0.524000000    -3.989000000     3.101000000
H    -1.036000000    -3.444000000     3.699000000
H    -0.766000000    -4.887000000     3.331000000
O     5.549000000     0.614000000     4.669000000
H     5.048000000     0.104000000     4.033000000
H     6.113000000    -0.028000000     5.100000000
O     3.887000000     5.144000000     2.474000000
H     3.250000000     5.857000000     2.428000000
H     3.420000000     4.383000000     2.129000000
O    -4.969000000     0.254000000    -3.944000000
H    -5.260000000    -0.577000000    -4.319000000
H    -4.375000000     0.003000000    -3.237000000
O     3.147000000     2.045000000     5.273000000
H     4.014000000     1.648000000     5.355000000
H     3.096000000     2.326000000     4.360000000
O    -4.714000000     2.194000000    -1.894000000
H    -5.117000000     1.888000000    -2.707000000
H    -4.133000000     1.480000000    -1.632000000
O     5.558000000     1.240000000    -3.816000000
H     5.228000000     0.677000000    -3.116000000
H     4.794000000     1.745000000    -4.096000000
O     3.033000000     1.604000000    -4.944000000
H     3.286000000     0.702000000    -5.137000000
H     3.095000000     2.055000000    -5.786000000
O    -0.976000000     3.102000000    -0.803000000
H    -0.208000000     3.642000000    -0.616000000
H    -0.719000000     2.220000000    -0.534000000
O    -0.003000000     2.252000000    -4.882000000
H    -0.067000000     1.344000000    -5.178000000
H     0.535000000     2.209000000    -4.091000000
O    -0.574000000    -3.850000000    -2.377000000
H    -0.432000000    -3.608000000    -1.462000000
H    -1.049000000    -3.106000000    -2.749000000
O     0.131000000    -2.811000000     0.352000000
H     0.037000000    -1.859000000     0.372000000
H     0.389000000    -3.045000000     1.243000000
O    -1.771000000     4.079000000    -3.551000000
H    -1.241000000     3.499000000    -4.098000000
H    -1.695000000     3.712000000    -2.670000000
O    -6.451000000    -2.962000000     1.553000000
H    -5.919000000    -2.685000000     0.808000000
H    -6.267000000    -3.897000000     1.645000000
