158
-3032.14943
C     0.820000000    -0.663000000     1.041000000
H     1.504000000    -1.042000000     1.796000000
C     1.252000000     0.047000000    -0.074000000
H     2.325000000     0.202000000    -0.154000000
C     0.386000000     0.596000000    -1.022000000
H     0.768000000     1.209000000    -1.813000000
C    -0.933000000     0.281000000    -0.956000000
H    -1.675000000     0.471000000    -1.728000000
C    -1.405000000    -0.352000000     0.208000000
H    -2.469000000    -0.574000000     0.205000000
C    -0.523000000    -0.727000000     1.272000000
C    -1.086000000    -1.382000000     2.550000000
O    -0.282000000    -1.643000000     3.454000000
O    -2.296000000    -1.572000000     2.655000000
O     4.658000000     1.123000000    -1.943000000
H     4.864000000     1.010000000    -1.015000000
H     4.881000000     0.283000000    -2.343000000
O     0.522000000     4.129000000    -5.570000000
H     0.887000000     4.802000000    -6.145000000
H     1.269000000     3.574000000    -5.346000000
O     4.044000000     0.205000000     2.919000000
H     4.219000000    -0.715000000     2.722000000
H     3.132000000     0.218000000     3.208000000
O    -0.187000000     2.064000000     4.014000000
H     0.685000000     1.758000000     4.263000000
H    -0.256000000     2.936000000     4.403000000
O     1.078000000    -3.551000000     6.376000000
H     0.694000000    -4.413000000     6.216000000
H     1.821000000    -3.504000000     5.775000000
O    -2.919000000    -6.751000000     4.381000000
H    -2.785000000    -5.804000000     4.328000000
H    -2.774000000    -6.962000000     5.303000000
O    -4.119000000     1.922000000     1.773000000
H    -3.401000000     2.524000000     1.575000000
H    -4.000000000     1.701000000     2.696000000
O     0.268000000     1.128000000    -6.703000000
H     0.208000000     1.179000000    -7.657000000
H     0.924000000     1.784000000    -6.469000000
O     3.264000000     3.616000000     0.324000000
H     3.564000000     2.739000000     0.088000000
H     2.674000000     3.868000000    -0.387000000
O    -1.240000000     6.253000000    -4.373000000
H    -0.673000000     7.024000000    -4.388000000
H    -0.755000000     5.589000000    -4.862000000
O     1.758000000     0.078000000     4.448000000
H     2.323000000    -0.411000000     5.047000000
H     1.112000000    -0.563000000     4.152000000
O    -2.729000000     3.451000000    -1.197000000
H    -2.102000000     3.651000000    -1.893000000
H    -2.213000000     2.990000000    -0.536000000
O     3.170000000    -5.212000000     4.618000000
H     2.518000000    -5.884000000     4.817000000
H     2.876000000    -4.831000000     3.791000000
O    -3.154000000    -3.205000000     0.385000000
H    -3.315000000    -2.390000000     0.861000000
H    -2.626000000    -2.942000000    -0.369000000
O    -1.079000000     2.383000000     1.402000000
H    -0.810000000     1.552000000     1.009000000
H    -0.994000000     2.240000000     2.344000000
O     0.556000000    -6.380000000     3.133000000
H     0.833000000    -5.463000000     3.135000000
H     0.243000000    -6.533000000     2.241000000
O    -1.639000000    -5.402000000     1.107000000
H    -2.397000000    -4.824000000     1.026000000
H    -1.039000000    -5.107000000     0.422000000
O     5.070000000    -2.426000000     2.858000000
H     5.016000000    -3.381000000     2.805000000
H     5.017000000    -2.235000000     3.795000000
O    -5.987000000     0.868000000     4.343000000
H    -6.515000000     0.429000000     3.676000000
H    -5.377000000     0.196000000     4.647000000
O    -2.135000000    -4.099000000     3.698000000
H    -2.257000000    -3.178000000     3.468000000
H    -1.723000000    -4.486000000     2.925000000
O    -2.789000000    -3.818000000     6.168000000
H    -3.126000000    -2.922000000     6.190000000
H    -2.309000000    -3.872000000     5.341000000
O    -1.541000000    -1.958000000    -2.643000000
H    -1.164000000    -2.427000000    -3.387000000
H    -0.790000000    -1.550000000    -2.212000000
O     1.211000000    -3.827000000     3.005000000
H     1.632000000    -3.630000000     2.168000000
H     0.796000000    -3.004000000     3.263000000
O     0.733000000    -5.039000000    -0.154000000
H     0.779000000    -5.946000000     0.149000000
H     1.589000000    -4.670000000     0.066000000
O     5.026000000    -2.948000000    -1.407000000
H     4.635000000    -2.646000000    -2.227000000
H     5.716000000    -2.311000000    -1.221000000
O    -0.938000000    -1.382000000     6.074000000
H    -0.202000000    -1.813000000     6.509000000
H    -0.894000000    -1.689000000     5.168000000
O     1.299000000     4.126000000    -1.721000000
H     1.560000000     4.908000000    -2.208000000
H     0.620000000     3.723000000    -2.263000000
O     4.950000000     1.332000000     0.734000000
H     5.743000000     0.800000000     0.800000000
H     4.391000000     1.016000000     1.444000000
O    -4.071000000     0.978000000    -2.719000000
H    -3.805000000     0.168000000    -3.156000000
H    -3.321000000     1.563000000    -2.824000000
O    -5.713000000    -1.561000000     1.495000000
H    -6.619000000    -1.313000000     1.679000000
H    -5.390000000    -0.873000000     0.912000000
O     2.887000000     2.425000000    -5.689000000
H     3.525000000     1.771000000    -5.973000000
H     2.998000000     2.471000000    -4.740000000
O    -2.096000000     0.977000000    -4.746000000
H    -1.441000000     0.933000000    -5.442000000
H    -2.451000000     0.090000000    -4.693000000
O     2.579000000     3.510000000     3.270000000
H     2.905000000     3.274000000     2.402000000
H     1.994000000     4.252000000     3.113000000
O     2.632000000     5.972000000    -3.606000000
H     3.036000000     5.200000000    -3.209000000
H     3.209000000     6.195000000    -4.336000000
O    -1.269000000     3.094000000    -3.370000000
H    -1.232000000     2.248000000    -3.816000000
H    -1.621000000     3.696000000    -4.026000000
O     0.015000000     4.903000000     2.206000000
H    -0.439000000     4.714000000     3.028000000
H    -0.364000000     4.290000000     1.577000000
O    -7.193000000    -2.097000000    -1.435000000
H    -6.736000000    -1.377000000    -0.999000000
H    -7.315000000    -1.794000000    -2.334000000
O     4.466000000     3.758000000    -2.428000000
H     4.514000000     2.807000000    -2.520000000
H     4.297000000     3.901000000    -1.497000000
O    -3.744000000    -1.250000000    -4.101000000
H    -2.942000000    -1.388000000    -3.597000000
H    -3.824000000    -2.035000000    -4.643000000
O     0.604000000    -2.331000000    -5.271000000
H     0.444000000    -3.234000000    -4.996000000
H    -0.147000000    -2.112000000    -5.823000000
O     3.753000000    -1.476000000    -3.597000000
H     4.078000000    -2.054000000    -4.287000000
H     2.893000000    -1.193000000    -3.907000000
O     0.551000000     0.113000000     8.010000000
H     0.291000000     0.502000000     8.845000000
H    -0.081000000     0.458000000     7.379000000
O    -2.813000000     0.868000000     4.326000000
H    -2.752000000     0.038000000     3.852000000
H    -1.910000000     1.068000000     4.576000000
O     3.326000000    -3.856000000     0.613000000
H     3.750000000    -4.457000000     1.226000000
H     3.986000000    -3.697000000    -0.061000000
O    -5.173000000     4.027000000    -2.432000000
H    -5.884000000     3.604000000    -1.951000000
H    -4.379000000     3.763000000    -1.966000000
O    -5.672000000    -4.340000000    -1.126000000
H    -6.369000000    -3.691000000    -1.217000000
H    -5.021000000    -3.916000000    -0.566000000
O    -5.009000000     0.251000000    -0.253000000
H    -4.570000000     0.909000000     0.285000000
H    -4.781000000     0.485000000    -1.152000000
O    -4.774000000    -2.263000000     4.556000000
H    -4.655000000    -2.304000000     3.607000000
H    -5.149000000    -3.113000000     4.786000000
