158
-3005.02571
C     0.472000000    -0.212000000     1.360000000
H     0.814000000    -0.554000000     2.333000000
C     1.033000000    -0.749000000     0.192000000
H     1.701000000    -1.605000000     0.234000000
C     0.511000000    -0.406000000    -1.036000000
H     0.957000000    -0.892000000    -1.908000000
C    -0.599000000     0.420000000    -1.148000000
H    -1.018000000     0.513000000    -2.146000000
C    -1.158000000     0.990000000     0.021000000
H    -1.970000000     1.712000000     0.005000000
C    -0.641000000     0.624000000     1.262000000
C    -1.233000000     1.161000000     2.572000000
O    -0.972000000     0.596000000     3.648000000
O    -2.085000000     2.019000000     2.534000000
O     4.630000000     2.004000000    -2.183000000
H     4.997000000     1.309000000    -1.637000000
H     4.082000000     2.513000000    -1.587000000
O     1.178000000     1.393000000    -5.600000000
H     0.499000000     0.744000000    -5.415000000
H     1.960000000     1.051000000    -5.166000000
O     0.871000000    -1.758000000    -7.206000000
H     0.463000000    -1.502000000    -6.379000000
H     1.464000000    -2.471000000    -6.970000000
O     3.879000000    -1.472000000     2.457000000
H     4.347000000    -1.119000000     3.213000000
H     3.197000000    -2.027000000     2.835000000
O     0.135000000     3.027000000     7.153000000
H     0.500000000     2.705000000     6.329000000
H    -0.439000000     2.322000000     7.452000000
O     4.890000000     0.117000000     0.509000000
H     5.831000000    -0.015000000     0.623000000
H     4.491000000    -0.369000000     1.231000000
O    -0.305000000     4.178000000     1.678000000
H    -1.127000000     3.862000000     2.053000000
H     0.349000000     3.541000000     1.964000000
O    -0.196000000    -0.937000000    -4.772000000
H    -1.113000000    -0.685000000    -4.664000000
H    -0.104000000    -1.736000000    -4.252000000
O    -4.927000000     0.869000000    -1.838000000
H    -4.609000000     0.690000000    -0.954000000
H    -5.870000000     0.710000000    -1.791000000
O     1.178000000     1.079000000     5.169000000
H     0.305000000     0.894000000     4.821000000
H     1.351000000     0.359000000     5.776000000
O    -3.838000000     4.761000000    -0.426000000
H    -3.936000000     4.269000000    -1.241000000
H    -4.108000000     4.147000000     0.258000000
O     1.380000000    -5.828000000    -1.515000000
H     0.908000000    -5.966000000    -0.694000000
H     1.392000000    -6.690000000    -1.932000000
O     1.496000000     2.584000000     2.832000000
H     2.118000000     2.405000000     2.126000000
H     1.943000000     2.289000000     3.625000000
O    -3.848000000     3.883000000     6.870000000
H    -4.265000000     3.023000000     6.818000000
H    -3.125000000     3.837000000     6.245000000
O    -4.374000000    -1.787000000     3.066000000
H    -4.094000000    -2.373000000     3.769000000
H    -4.907000000    -2.339000000     2.493000000
O     2.165000000    -2.190000000     4.478000000
H     1.900000000    -2.896000000     5.067000000
H     2.817000000    -1.695000000     4.975000000
O    -5.972000000     2.269000000     5.465000000
H    -6.254000000     3.035000000     4.966000000
H    -5.316000000     1.849000000     4.909000000
O     3.005000000    -5.010000000     1.502000000
H     3.341000000    -4.265000000     1.005000000
H     3.722000000    -5.251000000     2.089000000
O     4.801000000    -1.188000000    -2.403000000
H     4.489000000    -1.952000000    -2.888000000
H     4.744000000    -1.448000000    -1.483000000
O    -1.545000000    -1.792000000     4.506000000
H    -1.267000000    -2.304000000     3.747000000
H    -1.541000000    -0.886000000     4.198000000
O    -1.663000000    -2.445000000     0.525000000
H    -1.254000000    -1.654000000     0.174000000
H    -1.079000000    -2.725000000     1.230000000
O    -3.193000000     5.581000000     2.708000000
H    -2.966000000     6.484000000     2.927000000
H    -3.096000000     5.534000000     1.757000000
O     4.309000000    -2.939000000     0.202000000
H     4.231000000    -2.188000000     0.791000000
H     5.046000000    -3.440000000     0.551000000
O    -2.518000000    -2.569000000     6.863000000
H    -2.072000000    -2.291000000     6.063000000
H    -1.816000000    -2.891000000     7.429000000
O    -1.674000000     6.039000000    -1.723000000
H    -1.079000000     5.363000000    -1.401000000
H    -2.479000000     5.909000000    -1.221000000
O     3.519000000     2.262000000     1.087000000
H     4.273000000     2.784000000     1.359000000
H     3.883000000     1.398000000     0.892000000
O    -2.701000000    -0.638000000    -5.476000000
H    -2.764000000    -1.564000000    -5.710000000
H    -3.557000000    -0.426000000    -5.105000000
O    -1.839000000     6.029000000     5.806000000
H    -2.704000000     6.397000000     5.624000000
H    -1.599000000     5.572000000     5.000000000
O     3.910000000    -4.366000000    -4.957000000
H     4.660000000    -4.899000000    -4.694000000
H     3.494000000    -4.114000000    -4.132000000
O     1.916000000     3.040000000    -1.117000000
H     2.358000000     2.766000000    -0.313000000
H     1.291000000     2.338000000    -1.298000000
O    -2.540000000     2.194000000    -5.607000000
H    -1.800000000     2.471000000    -6.147000000
H    -2.528000000     1.238000000    -5.657000000
O     4.192000000    -0.245000000    -7.204000000
H     3.620000000    -0.028000000    -6.469000000
H     4.768000000    -0.930000000    -6.865000000
O     6.959000000     0.572000000    -3.173000000
H     7.452000000     1.084000000    -2.532000000
H     6.042000000     0.720000000    -2.943000000
O     1.525000000     5.317000000     4.198000000
H     1.010000000     4.686000000     3.695000000
H     2.339000000     4.855000000     4.399000000
O    -6.291000000     4.057000000     3.449000000
H    -5.680000000     3.999000000     2.715000000
H    -6.257000000     4.975000000     3.717000000
O     0.975000000     5.551000000    -0.435000000
H     0.514000000     5.308000000     0.369000000
H     1.305000000     4.723000000    -0.781000000
O    -4.322000000     3.062000000     1.453000000
H    -3.519000000     2.778000000     1.889000000
H    -4.734000000     2.249000000     1.157000000
O    -2.614000000    -3.452000000    -5.035000000
H    -1.785000000    -3.543000000    -4.564000000
H    -2.367000000    -3.472000000    -5.960000000
O     3.262000000     0.606000000    -4.122000000
H     3.043000000    -0.227000000    -3.704000000
H     3.887000000     1.016000000    -3.524000000
O    -0.106000000    -3.589000000    -3.613000000
H     0.198000000    -3.941000000    -2.776000000
H     0.194000000    -4.224000000    -4.263000000
O    -4.026000000     3.257000000    -2.876000000
H    -4.338000000     2.418000000    -2.536000000
H    -3.675000000     3.049000000    -3.742000000
O     2.989000000    -3.612000000    -2.165000000
H     2.214000000    -4.144000000    -1.988000000
H     3.336000000    -3.398000000    -1.298000000
O    -2.768000000     0.528000000     7.003000000
H    -3.065000000     0.676000000     6.105000000
H    -2.771000000    -0.424000000     7.102000000
O    -2.621000000     3.643000000     4.365000000
H    -2.393000000     2.878000000     3.836000000
H    -2.853000000     4.316000000     3.725000000
O    -3.774000000    -2.281000000    -2.623000000
H    -3.101000000    -2.379000000    -3.297000000
H    -4.582000000    -2.127000000    -3.112000000
O    -4.024000000     0.111000000     0.871000000
H    -3.756000000    -0.736000000     0.515000000
H    -4.115000000    -0.042000000     1.811000000
O     0.143000000    -3.228000000     2.708000000
H     0.536000000    -3.981000000     2.266000000
H     0.846000000    -2.879000000     3.256000000
O    -3.752000000     0.817000000     4.369000000
H    -2.946000000     1.200000000     4.022000000
H    -3.975000000     0.124000000     3.748000000
