158
-3022.01788
C     1.290000000     0.287000000     0.625000000
H     2.219000000     0.438000000     1.169000000
C     0.993000000    -0.811000000    -0.180000000
H     1.690000000    -1.645000000    -0.178000000
C    -0.297000000    -0.920000000    -0.781000000
H    -0.480000000    -1.822000000    -1.368000000
C    -1.222000000     0.087000000    -0.647000000
H    -2.191000000     0.103000000    -1.141000000
C    -0.920000000     1.116000000     0.248000000
H    -1.659000000     1.909000000     0.323000000
C     0.287000000     1.277000000     0.888000000
C     0.608000000     2.438000000     1.830000000
O     1.549000000     2.325000000     2.624000000
O    -0.123000000     3.408000000     1.844000000
O     3.903000000     3.644000000     0.867000000
H     4.618000000     3.761000000     1.493000000
H     4.251000000     3.031000000     0.219000000
O    -1.881000000    -3.726000000     0.382000000
H    -1.912000000    -3.195000000     1.178000000
H    -1.039000000    -3.509000000    -0.018000000
O     0.775000000    -3.527000000     3.763000000
H     0.446000000    -4.423000000     3.826000000
H     1.663000000    -3.621000000     3.418000000
O    -2.526000000    -6.726000000     0.095000000
H    -2.246000000    -6.493000000    -0.790000000
H    -2.623000000    -5.887000000     0.545000000
O    -0.892000000     0.907000000     5.270000000
H    -1.462000000     0.563000000     5.958000000
H    -1.473000000     1.039000000     4.521000000
O     2.767000000    -1.082000000    -5.294000000
H     2.307000000    -1.893000000    -5.080000000
H     2.799000000    -0.598000000    -4.468000000
O     3.328000000    -1.720000000     5.258000000
H     3.389000000    -2.416000000     4.604000000
H     2.631000000    -1.149000000     4.936000000
O    -1.023000000    -3.345000000    -6.490000000
H    -1.020000000    -3.811000000    -5.654000000
H    -0.866000000    -4.025000000    -7.144000000
O    -5.776000000    -1.105000000    -4.168000000
H    -5.727000000    -1.633000000    -4.965000000
H    -4.964000000    -1.302000000    -3.700000000
O     3.262000000     1.683000000     6.012000000
H     3.229000000     0.962000000     5.382000000
H     2.677000000     2.347000000     5.647000000
O    -0.474000000     4.847000000     3.872000000
H    -0.377000000     4.312000000     3.084000000
H    -1.324000000     5.275000000     3.768000000
O     0.705000000    -4.767000000    -0.217000000
H     1.618000000    -4.490000000    -0.280000000
H     0.739000000    -5.721000000    -0.288000000
O    -2.716000000     1.866000000     3.648000000
H    -3.104000000     1.007000000     3.481000000
H    -2.991000000     2.401000000     2.903000000
O    -4.845000000     0.487000000    -0.881000000
H    -4.501000000     1.048000000    -1.576000000
H    -4.480000000    -0.378000000    -1.069000000
O     4.848000000     1.658000000    -1.266000000
H     4.867000000     0.702000000    -1.226000000
H     4.462000000     1.854000000    -2.120000000
O     1.105000000    -3.124000000    -4.328000000
H     0.355000000    -3.255000000    -3.747000000
H     1.136000000    -3.919000000    -4.861000000
O    -4.690000000    -3.602000000    -0.233000000
H    -3.792000000    -3.839000000    -0.005000000
H    -4.894000000    -4.142000000    -0.997000000
O     4.055000000     1.735000000     3.121000000
H     4.310000000     2.650000000     3.239000000
H     3.154000000     1.776000000     2.801000000
O    -3.470000000     1.970000000    -2.931000000
H    -4.284000000     1.908000000    -3.431000000
H    -2.930000000     2.585000000    -3.429000000
O     6.373000000     1.903000000     4.692000000
H     6.721000000     1.058000000     4.978000000
H     5.426000000     1.769000000     4.647000000
O     2.432000000    -0.055000000    -2.620000000
H     1.890000000    -0.198000000    -1.844000000
H     2.386000000     0.889000000    -2.773000000
O    -2.873000000    -6.560000000    -2.561000000
H    -2.993000000    -7.480000000    -2.793000000
H    -3.728000000    -6.159000000    -2.721000000
O    -5.714000000     1.785000000     1.612000000
H    -6.092000000     1.253000000     2.312000000
H    -5.705000000     1.206000000     0.849000000
O    -4.770000000    -1.238000000     1.272000000
H    -4.725000000    -2.042000000     0.755000000
H    -4.616000000    -0.537000000     0.638000000
O     2.053000000     5.148000000     2.302000000
H     2.707000000     4.517000000     2.001000000
H     1.253000000     4.633000000     2.406000000
O     1.521000000     5.447000000    -2.511000000
H     2.247000000     5.525000000    -1.893000000
H     0.745000000     5.346000000    -1.959000000
O    -3.962000000     3.574000000     0.638000000
H    -3.996000000     4.469000000     0.976000000
H    -4.754000000     3.159000000     0.978000000
O    -0.429000000    -6.060000000     2.681000000
H    -1.341000000    -6.236000000     2.913000000
H    -0.406000000    -6.129000000     1.727000000
O     1.519000000     0.466000000     4.355000000
H     0.618000000     0.560000000     4.663000000
H     1.659000000     1.224000000     3.789000000
O    -1.178000000    -4.718000000    -3.812000000
H    -0.579000000    -5.345000000    -4.218000000
H    -1.848000000    -5.262000000    -3.397000000
O     3.268000000     5.968000000    -0.376000000
H     3.171000000     6.341000000     0.500000000
H     3.443000000     5.039000000    -0.223000000
O     3.227000000    -4.140000000     0.621000000
H     3.122000000    -4.409000000     1.534000000
H     4.167000000    -3.994000000     0.520000000
O    -2.488000000     4.410000000    -1.575000000
H    -1.743000000     4.956000000    -1.320000000
H    -2.946000000     4.232000000    -0.753000000
O    -3.644000000    -4.017000000    -5.159000000
H    -2.757000000    -3.693000000    -5.007000000
H    -3.947000000    -3.533000000    -5.927000000
O    -3.415000000    -1.645000000    -2.599000000
H    -2.847000000    -2.363000000    -2.317000000
H    -2.935000000    -1.228000000    -3.315000000
O    -0.768000000    -1.804000000     2.473000000
H    -0.168000000    -1.309000000     1.915000000
H    -0.196000000    -2.338000000     3.025000000
O    -2.214000000     3.894000000     6.759000000
H    -2.003000000     3.650000000     5.858000000
H    -3.162000000     4.022000000     6.758000000
O     5.315000000    -1.387000000    -1.204000000
H     4.379000000    -1.440000000    -1.396000000
H     5.739000000    -1.774000000    -1.971000000
O    -0.308000000     5.228000000    -0.111000000
H    -0.008000000     4.383000000     0.227000000
H    -0.778000000     5.625000000     0.622000000
O     5.935000000    -2.797000000     1.141000000
H     5.750000000    -2.282000000     0.355000000
H     6.647000000    -2.325000000     1.574000000
O     0.813000000     7.663000000     1.515000000
H     0.416000000     7.881000000     2.358000000
H     1.243000000     6.821000000     1.664000000
O     6.783000000     1.524000000     1.783000000
H     7.409000000     0.804000000     1.863000000
H     5.977000000     1.184000000     2.172000000
O    -3.066000000     6.326000000     3.855000000
H    -3.521000000     6.035000000     3.065000000
H    -3.756000000     6.695000000     4.406000000
O    -3.074000000    -0.797000000     3.316000000
H    -3.710000000    -1.136000000     2.686000000
H    -2.226000000    -1.091000000     2.982000000
O     1.633000000     3.735000000     5.004000000
H     1.874000000     3.289000000     4.192000000
H     0.798000000     4.159000000     4.806000000
O    -2.054000000    -1.240000000    -5.065000000
H    -2.133000000    -0.500000000    -5.667000000
H    -1.635000000    -1.927000000    -5.584000000
O     2.552000000     6.102000000     5.536000000
H     2.312000000     5.181000000     5.439000000
H     3.052000000     6.304000000     4.745000000
O    -0.669000000     2.314000000    -2.866000000
H    -0.673000000     1.431000000    -2.498000000
H    -1.280000000     2.805000000    -2.317000000
