158
-3048.09272
C     0.737000000    -0.749000000     1.031000000
H     1.371000000    -1.291000000     1.728000000
C     1.180000000    -0.453000000    -0.252000000
H     2.194000000    -0.755000000    -0.502000000
C     0.351000000     0.125000000    -1.161000000
H     0.762000000     0.238000000    -2.184000000
C    -0.916000000     0.426000000    -0.784000000
H    -1.645000000     0.781000000    -1.508000000
C    -1.362000000     0.208000000     0.512000000
H    -2.377000000     0.513000000     0.754000000
C    -0.470000000    -0.298000000     1.487000000
C    -0.832000000    -0.323000000     2.967000000
O     0.033000000    -0.290000000     3.757000000
O    -2.034000000    -0.107000000     3.254000000
O     1.908000000     1.367000000    -4.152000000
H     2.569000000     0.764000000    -4.491000000
H     1.073000000     0.961000000    -4.381000000
O     3.181000000     0.636000000     2.291000000
H     2.485000000     0.482000000     2.929000000
H     3.969000000     0.756000000     2.820000000
O     1.039000000     2.380000000     1.308000000
H     0.649000000     1.737000000     0.716000000
H     1.882000000     1.999000000     1.553000000
O     1.774000000    -2.060000000     4.463000000
H     1.161000000    -1.354000000     4.257000000
H     1.556000000    -2.312000000     5.360000000
O     3.781000000     3.781000000    -4.956000000
H     3.510000000     3.116000000    -4.323000000
H     4.709000000     3.603000000    -5.108000000
O    -4.880000000    -0.324000000     3.219000000
H    -3.985000000    -0.137000000     2.938000000
H    -4.777000000    -0.823000000     4.030000000
O    -7.452000000    -0.662000000     3.531000000
H    -7.620000000    -0.033000000     2.829000000
H    -6.523000000    -0.873000000     3.445000000
O     5.279000000    -1.660000000     0.446000000
H     4.897000000    -0.789000000     0.552000000
H     6.167000000    -1.495000000     0.129000000
O    -2.579000000    -2.694000000     3.327000000
H    -2.535000000    -1.742000000     3.422000000
H    -3.047000000    -2.831000000     2.503000000
O    -5.484000000     3.451000000    -1.478000000
H    -5.384000000     3.222000000    -2.402000000
H    -5.166000000     4.352000000    -1.419000000
O    -0.135000000    -0.204000000    -4.792000000
H     0.466000000    -0.931000000    -4.631000000
H    -0.878000000    -0.602000000    -5.246000000
O     5.403000000     0.056000000    -2.040000000
H     6.147000000     0.000000000    -2.639000000
H     4.835000000    -0.671000000    -2.295000000
O     1.703000000     3.309000000    -2.038000000
H     2.099000000     3.093000000    -1.194000000
H     1.934000000     2.575000000    -2.606000000
O     1.673000000     1.426000000     5.237000000
H     1.044000000     2.122000000     5.429000000
H     1.194000000     0.820000000     4.671000000
O    -2.575000000     4.201000000     0.040000000
H    -2.610000000     5.089000000     0.397000000
H    -2.250000000     3.665000000     0.764000000
O    -3.500000000    -2.667000000     0.469000000
H    -3.974000000    -3.449000000     0.750000000
H    -3.018000000    -2.946000000    -0.310000000
O    -1.058000000     3.681000000    -2.398000000
H    -0.121000000     3.667000000    -2.201000000
H    -1.479000000     3.823000000    -1.550000000
O    -5.375000000     2.504000000     1.028000000
H    -4.426000000     2.380000000     1.014000000
H    -5.585000000     2.844000000     0.158000000
O     3.744000000    -3.893000000     1.721000000
H     4.083000000    -3.248000000     1.099000000
H     3.830000000    -3.470000000     2.575000000
O     1.353000000    -4.781000000     2.752000000
H     1.959000000    -4.274000000     2.210000000
H     0.944000000    -4.132000000     3.324000000
O    -1.653000000    -2.639000000     6.890000000
H    -1.911000000    -1.730000000     6.738000000
H    -1.322000000    -2.939000000     6.044000000
O    -1.028000000    -2.889000000    -1.211000000
H    -0.927000000    -1.963000000    -0.994000000
H    -0.213000000    -3.295000000    -0.915000000
O     3.529000000    -1.606000000    -3.340000000
H     2.579000000    -1.654000000    -3.231000000
H     3.651000000    -1.182000000    -4.189000000
O    -2.399000000    -0.100000000     6.118000000
H    -2.170000000     0.729000000     6.540000000
H    -2.393000000     0.098000000     5.182000000
O     2.867000000     5.792000000    -2.704000000
H     2.273000000     5.078000000    -2.474000000
H     3.024000000     5.681000000    -3.641000000
O     3.577000000     1.387000000    -0.719000000
H     4.114000000     0.791000000    -1.242000000
H     3.351000000     0.883000000     0.062000000
O    -5.697000000     2.086000000    -3.913000000
H    -4.832000000     1.730000000    -4.115000000
H    -6.099000000     1.431000000    -3.342000000
O    -5.911000000    -0.732000000    -2.436000000
H    -5.603000000    -0.526000000    -1.553000000
H    -5.689000000    -1.655000000    -2.557000000
O    -5.126000000    -0.372000000     0.108000000
H    -4.638000000    -1.189000000     0.211000000
H    -5.174000000    -0.009000000     0.993000000
O     4.422000000    -2.117000000     3.942000000
H     4.846000000    -1.384000000     3.495000000
H     3.627000000    -1.739000000     4.320000000
O    -1.234000000     4.887000000     3.832000000
H    -1.699000000     5.524000000     4.375000000
H    -0.836000000     4.283000000     4.460000000
O     2.946000000    -0.433000000    -5.947000000
H     2.625000000    -1.130000000    -6.520000000
H     3.763000000    -0.146000000    -6.354000000
O     0.652000000     3.510000000    -5.814000000
H     1.087000000     3.176000000    -5.030000000
H     1.369000000     3.780000000    -6.388000000
O     0.598000000     0.903000000    -7.477000000
H     0.402000000     1.552000000    -6.801000000
H     0.889000000     0.131000000    -6.991000000
O     4.737000000    -4.345000000    -3.027000000
H     5.497000000    -4.431000000    -2.452000000
H     4.663000000    -3.405000000    -3.188000000
O    -3.090000000     1.315000000    -4.185000000
H    -2.469000000     0.835000000    -4.733000000
H    -2.543000000     1.764000000    -3.541000000
O     0.020000000     4.836000000     1.374000000
H    -0.572000000     4.626000000     2.097000000
H     0.458000000     4.009000000     1.175000000
O     3.774000000     3.362000000     5.551000000
H     3.374000000     2.522000000     5.325000000
H     3.166000000     4.016000000     5.207000000
O    -2.469000000    -0.681000000    -6.152000000
H    -3.290000000    -0.191000000    -6.107000000
H    -2.592000000    -1.289000000    -6.880000000
O     0.692000000    -2.427000000    -3.590000000
H     0.846000000    -3.179000000    -4.163000000
H     0.015000000    -2.724000000    -2.982000000
O     0.314000000     0.141000000     7.597000000
H     0.977000000     0.364000000     6.945000000
H    -0.497000000     0.057000000     7.096000000
O    -0.188000000     3.382000000     6.224000000
H    -0.966000000     2.995000000     6.626000000
H     0.177000000     3.948000000     6.904000000
O    -2.762000000     2.586000000     2.470000000
H    -2.666000000     3.187000000     3.208000000
H    -2.499000000     1.734000000     2.818000000
O     1.280000000    -4.002000000    -0.796000000
H     1.706000000    -4.810000000    -0.508000000
H     1.525000000    -3.918000000    -1.718000000
O    -7.717000000     1.367000000     1.749000000
H    -8.128000000     2.129000000     2.156000000
H    -6.847000000     1.672000000     1.493000000
O    -1.233000000    -4.699000000     4.810000000
H    -1.543000000    -4.246000000     4.025000000
H    -1.688000000    -5.541000000     4.795000000
O    -4.414000000    -2.141000000     5.491000000
H    -3.941000000    -1.526000000     6.051000000
H    -3.728000000    -2.621000000     5.027000000
O    -2.669000000     2.410000000     7.239000000
H    -3.370000000     2.711000000     6.662000000
H    -3.068000000     2.386000000     8.109000000
