158
-3023.84542
C     0.746000000    -0.289000000     1.275000000
H     0.979000000    -0.669000000     2.266000000
C     0.234000000    -1.232000000     0.368000000
H     0.306000000    -2.290000000     0.605000000
C    -0.281000000    -0.769000000    -0.872000000
H    -0.617000000    -1.483000000    -1.600000000
C    -0.335000000     0.567000000    -1.166000000
H    -0.785000000     0.930000000    -2.086000000
C     0.048000000     1.475000000    -0.178000000
H    -0.210000000     2.512000000    -0.377000000
C     0.562000000     1.085000000     1.036000000
C     0.551000000     2.032000000     2.151000000
O     0.260000000     1.637000000     3.251000000
O     0.799000000     3.200000000     2.017000000
O     3.094000000     3.564000000     0.725000000
H     2.505000000     3.454000000     1.471000000
H     3.186000000     4.512000000     0.630000000
O    -5.106000000    -3.919000000    -0.244000000
H    -4.239000000    -4.058000000     0.138000000
H    -5.022000000    -4.225000000    -1.147000000
O    -0.668000000    -5.089000000     1.409000000
H    -0.336000000    -5.891000000     1.815000000
H     0.104000000    -4.684000000     1.014000000
O     0.892000000    -3.048000000     6.035000000
H     1.466000000    -3.163000000     6.792000000
H     0.786000000    -2.099000000     5.957000000
O    -4.098000000    -0.105000000     5.312000000
H    -3.261000000     0.334000000     5.164000000
H    -3.914000000    -1.032000000     5.161000000
O    -3.015000000    -0.922000000    -3.054000000
H    -2.790000000    -1.700000000    -2.543000000
H    -2.347000000    -0.884000000    -3.738000000
O    -1.925000000    -5.382000000     4.094000000
H    -1.671000000    -5.213000000     5.002000000
H    -1.701000000    -4.576000000     3.629000000
O     1.316000000    -4.065000000     3.513000000
H     0.389000000    -4.025000000     3.279000000
H     1.330000000    -3.937000000     4.462000000
O     4.442000000    -4.224000000    -1.359000000
H     4.184000000    -3.312000000    -1.224000000
H     5.318000000    -4.285000000    -0.976000000
O    -3.043000000     5.612000000     1.358000000
H    -2.363000000     5.087000000     0.937000000
H    -3.078000000     5.282000000     2.256000000
O     0.704000000    -0.183000000     6.414000000
H     1.577000000     0.128000000     6.175000000
H     0.433000000     0.391000000     7.131000000
O    -2.774000000     5.020000000     4.180000000
H    -2.748000000     5.743000000     4.808000000
H    -1.941000000     4.565000000     4.305000000
O     2.575000000     0.908000000     4.729000000
H     1.704000000     1.052000000     4.357000000
H     3.169000000     1.356000000     4.128000000
O    -2.489000000    -3.409000000    -2.100000000
H    -1.828000000    -3.738000000    -1.491000000
H    -2.513000000    -4.058000000    -2.802000000
O    -3.490000000    -1.577000000    -6.483000000
H    -2.857000000    -0.903000000    -6.237000000
H    -4.073000000    -1.143000000    -7.106000000
O    -2.431000000     0.548000000     2.148000000
H    -1.939000000     0.613000000     2.967000000
H    -2.146000000    -0.281000000     1.763000000
O     2.923000000    -4.219000000    -4.422000000
H     2.010000000    -4.481000000    -4.300000000
H     2.992000000    -3.376000000    -3.975000000
O    -5.411000000     0.639000000    -2.740000000
H    -4.597000000     0.279000000    -3.092000000
H    -6.069000000     0.439000000    -3.406000000
O    -5.844000000    -3.212000000    -3.086000000
H    -5.501000000    -2.342000000    -3.290000000
H    -5.475000000    -3.780000000    -3.763000000
O     2.391000000     2.460000000    -1.633000000
H     2.206000000     1.674000000    -1.118000000
H     2.766000000     3.076000000    -1.004000000
O    -0.404000000    -1.249000000    -4.768000000
H     0.483000000    -0.945000000    -4.576000000
H    -0.277000000    -2.039000000    -5.294000000
O     3.851000000     0.226000000     1.703000000
H     3.997000000    -0.342000000     2.460000000
H     3.878000000     1.113000000     2.060000000
O     4.399000000    -1.203000000     4.268000000
H     4.733000000    -1.368000000     5.149000000
H     3.594000000    -0.704000000     4.406000000
O     2.151000000    -0.135000000    -4.600000000
H     2.885000000    -0.114000000    -5.214000000
H     2.121000000     0.748000000    -4.232000000
O    -1.334000000    -7.337000000    -2.287000000
H    -0.409000000    -7.324000000    -2.042000000
H    -1.699000000    -8.082000000    -1.810000000
O     5.719000000     2.401000000    -0.171000000
H     4.889000000     2.588000000     0.268000000
H     5.480000000     2.266000000    -1.088000000
O    -0.117000000     3.997000000     4.456000000
H     0.271000000     4.111000000     3.588000000
H    -0.113000000     3.050000000     4.597000000
O     4.887000000     2.129000000     3.450000000
H     5.773000000     2.359000000     3.169000000
H     4.745000000     2.647000000     4.242000000
O    -0.722000000     4.390000000    -2.425000000
H    -1.155000000     5.244000000    -2.417000000
H    -0.231000000     4.363000000    -1.604000000
O    -3.464000000     1.501000000    -0.670000000
H    -3.195000000     1.203000000     0.199000000
H    -3.459000000     0.709000000    -1.207000000
O    -4.982000000     4.041000000    -3.149000000
H    -5.199000000     3.872000000    -2.233000000
H    -4.562000000     3.235000000    -3.449000000
O    -1.694000000    -2.295000000     3.392000000
H    -1.380000000    -1.466000000     3.753000000
H    -2.464000000    -2.509000000     3.919000000
O     2.042000000    -5.283000000    -0.127000000
H     2.665000000    -4.556000000    -0.110000000
H     2.541000000    -6.033000000     0.196000000
O     2.321000000     3.230000000    -4.330000000
H     3.013000000     3.879000000    -4.454000000
H     2.353000000     3.021000000    -3.396000000
O     1.607000000     6.449000000    -1.222000000
H     2.549000000     6.304000000    -1.125000000
H     1.207000000     5.847000000    -0.595000000
O     2.994000000     6.298000000     2.147000000
H     3.485000000     6.320000000     2.968000000
H     3.665000000     6.346000000     1.465000000
O     0.144000000    -3.609000000    -6.140000000
H     0.440000000    -3.432000000    -7.033000000
H     0.272000000    -4.551000000    -6.027000000
O    -2.559000000     2.474000000    -3.249000000
H    -1.773000000     3.002000000    -3.111000000
H    -2.735000000     2.079000000    -2.396000000
O    -4.127000000    -6.301000000    -2.223000000
H    -3.263000000    -6.470000000    -1.846000000
H    -4.238000000    -6.988000000    -2.881000000
O    -2.909000000    -3.759000000     1.248000000
H    -2.707000000    -3.028000000     1.831000000
H    -2.063000000    -4.175000000     1.083000000
O     3.166000000    -1.994000000    -2.816000000
H     2.564000000    -2.123000000    -2.083000000
H     2.737000000    -1.339000000    -3.366000000
O     0.027000000     5.101000000     0.505000000
H     0.034000000     5.882000000     1.059000000
H     0.241000000     4.383000000     1.101000000
O     0.173000000     7.028000000     2.499000000
H     0.185000000     7.924000000     2.163000000
H     1.092000000     6.761000000     2.502000000
O     3.253000000    -2.396000000     0.529000000
H     3.763000000    -1.605000000     0.704000000
H     2.532000000    -2.360000000     1.157000000
O    -1.344000000     0.306000000     4.596000000
H    -0.816000000     0.738000000     3.925000000
H    -0.723000000     0.103000000     5.296000000
O    -4.363000000    -4.037000000    -5.328000000
H    -3.693000000    -4.712000000    -5.438000000
H    -3.938000000    -3.229000000    -5.615000000
O     0.655000000     5.893000000     6.336000000
H    -0.265000000     6.112000000     6.488000000
H     0.634000000     5.259000000     5.619000000
O    -2.001000000     0.950000000    -5.579000000
H    -1.329000000     0.300000000    -5.378000000
H    -1.967000000     1.565000000    -4.845000000
