158
-3051.11123
C     0.928000000    -0.753000000     0.938000000
H     1.639000000    -1.266000000     1.582000000
C     1.103000000    -0.613000000    -0.399000000
H     2.058000000    -0.988000000    -0.757000000
C     0.239000000     0.130000000    -1.213000000
H     0.545000000     0.311000000    -2.235000000
C    -0.798000000     0.779000000    -0.586000000
H    -1.423000000     1.391000000    -1.230000000
C    -1.037000000     0.610000000     0.777000000
H    -1.886000000     1.125000000     1.221000000
C    -0.209000000    -0.177000000     1.545000000
C    -0.545000000    -0.475000000     2.938000000
O    -0.148000000    -1.459000000     3.442000000
O    -1.337000000     0.225000000     3.506000000
O    -0.787000000    -4.219000000    -4.915000000
H    -0.514000000    -5.133000000    -4.836000000
H    -0.257000000    -3.871000000    -5.632000000
O     5.116000000    -0.178000000     1.860000000
H     4.621000000    -0.815000000     2.375000000
H     5.210000000     0.578000000     2.440000000
O     2.269000000     2.476000000     0.066000000
H     2.560000000     2.420000000     0.976000000
H     1.638000000     1.763000000    -0.029000000
O     1.000000000    -2.726000000     5.625000000
H     0.697000000    -2.263000000     4.844000000
H     0.264000000    -2.674000000     6.235000000
O    -3.653000000    -0.671000000     4.534000000
H    -2.939000000    -0.317000000     4.004000000
H    -4.403000000    -0.696000000     3.940000000
O    -5.322000000    -2.274000000     6.030000000
H    -4.680000000    -1.860000000     5.454000000
H    -5.802000000    -2.876000000     5.462000000
O    -3.486000000    -3.997000000     2.960000000
H    -3.724000000    -4.739000000     3.516000000
H    -2.880000000    -3.483000000     3.494000000
O    -0.711000000    -1.601000000     7.704000000
H    -1.472000000    -1.188000000     7.297000000
H    -0.862000000    -1.509000000     8.644000000
O    -5.421000000     2.656000000    -1.615000000
H    -5.289000000     2.175000000    -0.799000000
H    -5.528000000     1.976000000    -2.280000000
O     2.576000000    -1.395000000    -4.431000000
H     3.427000000    -1.801000000    -4.598000000
H     2.138000000    -1.997000000    -3.829000000
O     3.150000000     1.424000000    -3.953000000
H     3.021000000     0.506000000    -4.193000000
H     3.564000000     1.390000000    -3.090000000
O    -3.558000000     3.663000000     5.468000000
H    -3.403000000     4.573000000     5.719000000
H    -3.058000000     3.548000000     4.660000000
O     1.829000000    -0.760000000     7.883000000
H     1.198000000    -1.372000000     7.502000000
H     2.098000000    -1.173000000     8.703000000
O    -2.667000000     3.921000000    -1.570000000
H    -3.619000000     3.831000000    -1.611000000
H    -2.476000000     4.034000000    -0.639000000
O     3.245000000    -1.529000000     3.746000000
H     2.889000000    -0.794000000     4.246000000
H     3.235000000    -2.263000000     4.361000000
O    -2.371000000     4.152000000     1.391000000
H    -1.793000000     4.895000000     1.564000000
H    -2.224000000     3.558000000     2.128000000
O     1.212000000     3.375000000    -3.664000000
H     1.593000000     3.624000000    -2.822000000
H     1.637000000     2.546000000    -3.883000000
O    -5.312000000     4.645000000     1.786000000
H    -5.455000000     3.725000000     2.006000000
H    -4.398000000     4.686000000     1.507000000
O    -2.200000000    -4.953000000     6.251000000
H    -2.100000000    -4.020000000     6.062000000
H    -2.745000000    -5.285000000     5.537000000
O     2.046000000    -6.223000000     4.094000000
H     2.845000000    -5.916000000     4.522000000
H     1.689000000    -5.444000000     3.667000000
O    -1.726000000    -0.900000000    -7.017000000
H    -2.462000000    -0.490000000    -7.471000000
H    -1.774000000    -1.822000000    -7.267000000
O     4.197000000    -4.663000000     3.430000000
H     4.280000000    -4.561000000     2.482000000
H     5.064000000    -4.441000000     3.771000000
O     0.662000000    -2.379000000    -6.334000000
H     0.013000000    -1.713000000    -6.561000000
H     1.297000000    -1.919000000    -5.786000000
O     2.712000000    -3.602000000     0.113000000
H     3.186000000    -3.224000000    -0.629000000
H     3.386000000    -3.748000000     0.777000000
O     0.672000000    -3.758000000     2.137000000
H     0.620000000    -2.966000000     2.672000000
H     1.152000000    -3.487000000     1.355000000
O    -1.172000000    -4.031000000    -0.096000000
H    -0.912000000    -3.444000000    -0.806000000
H    -0.788000000    -3.641000000     0.690000000
O    -0.407000000     0.875000000     5.848000000
H    -0.818000000     0.538000000     5.051000000
H     0.362000000     0.319000000     5.974000000
O     4.699000000     0.128000000    -1.418000000
H     4.603000000    -0.816000000    -1.544000000
H     4.727000000     0.242000000    -0.468000000
O    -3.984000000     2.366000000    -5.152000000
H    -4.167000000     1.544000000    -4.697000000
H    -4.458000000     3.028000000    -4.649000000
O    -4.208000000     0.505000000    -0.520000000
H    -4.237000000    -0.271000000     0.039000000
H    -3.426000000     0.383000000    -1.058000000
O    -4.771000000    -1.389000000     1.196000000
H    -4.642000000    -2.318000000     1.006000000
H    -5.153000000    -1.375000000     2.074000000
O    -1.425000000     1.851000000    -6.832000000
H    -1.966000000     1.872000000    -6.042000000
H    -1.299000000     0.919000000    -7.010000000
O     1.031000000     2.778000000     4.691000000
H     1.286000000     3.194000000     5.514000000
H     0.393000000     2.112000000     4.947000000
O     3.210000000     0.576000000    -7.238000000
H     4.119000000     0.286000000    -7.163000000
H     3.028000000     1.013000000    -6.406000000
O    -1.432000000     2.578000000    -3.817000000
H    -0.556000000     2.941000000    -3.948000000
H    -1.663000000     2.827000000    -2.922000000
O     3.225000000     2.573000000     2.775000000
H     2.485000000     2.729000000     3.362000000
H     3.903000000     2.201000000     3.339000000
O    -4.197000000    -0.516000000    -5.128000000
H    -3.323000000    -0.427000000    -4.748000000
H    -4.231000000    -1.419000000    -5.442000000
O    -1.764000000    -0.131000000    -3.774000000
H    -1.576000000     0.807000000    -3.740000000
H    -1.374000000    -0.423000000    -4.598000000
O    -2.191000000     5.190000000    -4.947000000
H    -1.249000000     5.287000000    -5.084000000
H    -2.306000000     4.268000000    -4.716000000
O     1.570000000    -3.560000000    -3.054000000
H     1.672000000    -4.503000000    -3.179000000
H     0.787000000    -3.473000000    -2.510000000
O     2.656000000     0.535000000     5.654000000
H     3.240000000     1.183000000     6.048000000
H     2.552000000    -0.136000000     6.329000000
O    -0.969000000    -2.670000000    -2.530000000
H    -1.198000000    -3.082000000    -3.363000000
H    -1.232000000    -1.756000000    -2.634000000
O    -1.561000000     2.830000000     3.594000000
H    -0.633000000     3.036000000     3.703000000
H    -1.586000000     1.877000000     3.509000000
O     4.614000000    -2.658000000    -1.979000000
H     5.225000000    -3.360000000    -2.206000000
H     3.771000000    -2.953000000    -2.324000000
O    -5.029000000     2.026000000     3.509000000
H    -5.765000000     1.608000000     3.956000000
H    -4.610000000     2.560000000     4.185000000
O    -6.991000000     1.596000000     1.498000000
H    -6.228000000     1.185000000     1.904000000
H    -7.057000000     1.182000000     0.637000000
O    -1.969000000    -2.610000000     5.089000000
H    -1.314000000    -2.125000000     4.588000000
H    -2.755000000    -2.065000000     5.048000000
O    -3.279000000     0.276000000     7.513000000
H    -4.226000000     0.370000000     7.617000000
H    -3.093000000     0.669000000     6.660000000
