158
-3060.66909
C     0.864000000    -0.743000000    -0.929000000
H     1.421000000    -1.274000000    -1.697000000
C    -0.465000000    -0.374000000    -1.217000000
H    -0.860000000    -0.512000000    -2.220000000
C    -1.147000000     0.371000000    -0.256000000
H    -2.214000000     0.714000000    -0.402000000
C    -0.583000000     0.506000000     1.026000000
H    -1.141000000     1.026000000     1.801000000
C     0.743000000     0.099000000     1.271000000
H     1.193000000     0.370000000     2.223000000
C     1.482000000    -0.481000000     0.279000000
C     2.917000000    -0.882000000     0.573000000
O     3.421000000    -1.802000000    -0.012000000
O     3.526000000    -0.375000000     1.509000000
O     0.268000000    -3.338000000     2.739000000
H     1.162000000    -3.064000000     2.944000000
H     0.005000000    -3.877000000     3.486000000
O     4.099000000     2.728000000     0.015000000
H     3.372000000     3.158000000     0.465000000
H     3.946000000     1.793000000     0.151000000
O     2.119000000    -1.593000000     6.470000000
H     2.763000000    -1.042000000     6.025000000
H     2.007000000    -2.346000000     5.890000000
O    -3.690000000     1.134000000     3.736000000
H    -2.804000000     0.774000000     3.787000000
H    -3.608000000     2.023000000     4.081000000
O     0.532000000    -1.934000000    -4.786000000
H     0.786000000    -1.081000000    -5.139000000
H     1.311000000    -2.242000000    -4.322000000
O     4.210000000     1.063000000     3.479000000
H     3.873000000     0.500000000     2.782000000
H     4.608000000     0.458000000     4.105000000
O    -5.443000000     0.655000000     1.776000000
H    -4.987000000     0.898000000     2.581000000
H    -5.319000000    -0.292000000     1.707000000
O    -1.937000000    -2.155000000     1.501000000
H    -1.370000000    -1.485000000     1.122000000
H    -1.339000000    -2.741000000     1.966000000
O     6.752000000     3.564000000     1.165000000
H     5.910000000     3.135000000     1.013000000
H     6.591000000     4.152000000     1.902000000
O     6.004000000     2.794000000     4.438000000
H     5.771000000     3.540000000     3.886000000
H     5.473000000     2.072000000     4.103000000
O     2.633000000    -2.994000000    -3.502000000
H     2.958000000    -3.508000000    -4.241000000
H     3.412000000    -2.567000000    -3.146000000
O     2.792000000     1.050000000    -2.554000000
H     3.685000000     1.011000000    -2.211000000
H     2.646000000     0.186000000    -2.940000000
O    -5.865000000    -2.672000000    -1.301000000
H    -5.532000000    -2.966000000    -2.149000000
H    -5.503000000    -3.297000000    -0.672000000
O     3.025000000    -4.415000000     0.095000000
H     3.143000000    -3.478000000     0.249000000
H     3.819000000    -4.683000000    -0.368000000
O    -5.088000000     0.164000000    -0.943000000
H    -5.367000000    -0.714000000    -1.203000000
H    -4.985000000     0.111000000     0.007000000
O     6.099000000    -0.504000000     0.920000000
H     5.144000000    -0.520000000     0.854000000
H     6.401000000    -0.937000000     0.122000000
O    -2.113000000     2.530000000    -5.781000000
H    -1.894000000     2.422000000    -4.856000000
H    -3.065000000     2.434000000    -5.816000000
O     5.188000000    -6.158000000     2.407000000
H     4.242000000    -6.095000000     2.537000000
H     5.417000000    -5.364000000     1.924000000
O     5.788000000    -3.709000000     1.458000000
H     5.117000000    -3.026000000     1.461000000
H     6.533000000    -3.314000000     1.911000000
O    -1.153000000     2.608000000    -2.941000000
H    -1.805000000     1.933000000    -3.126000000
H    -1.489000000     3.061000000    -2.167000000
O    -1.630000000    -3.294000000    -1.504000000
H    -1.406000000    -2.385000000    -1.301000000
H    -1.789000000    -3.297000000    -2.447000000
O     1.174000000     2.915000000     0.296000000
H     1.056000000     1.994000000     0.063000000
H     0.354000000     3.162000000     0.722000000
O     2.513000000     3.299000000     3.638000000
H     1.732000000     2.777000000     3.824000000
H     3.228000000     2.663000000     3.624000000
O     7.479000000    -4.501000000    -0.752000000
H     7.993000000    -5.241000000    -0.427000000
H     6.687000000    -4.505000000    -0.214000000
O    -7.519000000     2.064000000     0.857000000
H    -6.808000000     1.781000000     1.432000000
H    -7.946000000     1.252000000     0.586000000
O    -0.394000000     2.736000000     4.124000000
H    -0.625000000     1.809000000     4.069000000
H    -0.403000000     2.930000000     5.061000000
O    -4.923000000     3.395000000    -0.045000000
H    -5.641000000     3.058000000    -0.580000000
H    -4.962000000     2.881000000     0.761000000
O    -4.104000000    -4.266000000    -0.084000000
H    -3.845000000    -4.786000000     0.677000000
H    -3.278000000    -3.964000000    -0.460000000
O    -1.300000000     6.397000000    -2.098000000
H    -1.389000000     5.478000000    -1.845000000
H    -1.083000000     6.850000000    -1.283000000
O    -3.559000000     0.836000000    -3.335000000
H    -3.878000000     0.120000000    -3.885000000
H    -4.027000000     0.729000000    -2.507000000
O    -0.772000000     0.191000000    -6.542000000
H     0.184000000     0.234000000    -6.540000000
H    -1.041000000     0.813000000    -5.866000000
O     7.139000000    -1.588000000    -1.486000000
H     7.104000000    -2.511000000    -1.235000000
H     7.306000000    -1.603000000    -2.429000000
O     4.413000000    -0.282000000    -4.718000000
H     4.467000000    -0.626000000    -3.826000000
H     4.840000000     0.573000000    -4.670000000
O     6.685000000    -1.446000000     3.478000000
H     7.513000000    -1.081000000     3.789000000
H     6.479000000    -0.940000000     2.692000000
O     8.414000000     1.240000000     1.280000000
H     7.750000000     0.702000000     0.850000000
H     7.967000000     2.064000000     1.474000000
O    -4.445000000    -1.752000000    -4.966000000
H    -4.613000000    -2.673000000    -4.767000000
H    -5.200000000    -1.477000000    -5.486000000
O    -1.802000000    -2.602000000    -4.094000000
H    -2.477000000    -2.246000000    -4.672000000
H    -0.981000000    -2.259000000    -4.447000000
O    -4.638000000    -1.985000000     1.590000000
H    -4.722000000    -2.802000000     1.098000000
H    -3.694000000    -1.844000000     1.662000000
O     0.599000000    -5.284000000    -1.274000000
H    -0.161000000    -4.748000000    -1.501000000
H     1.234000000    -4.661000000    -0.920000000
O    -3.853000000     3.827000000     4.028000000
H    -3.125000000     4.321000000     4.405000000
H    -4.533000000     4.482000000     3.876000000
O     4.646000000    -1.259000000    -2.264000000
H     5.598000000    -1.353000000    -2.238000000
H     4.358000000    -1.497000000    -1.382000000
O     2.396000000    -5.909000000     2.433000000
H     2.458000000    -5.411000000     1.618000000
H     1.684000000    -5.490000000     2.916000000
O    -1.044000000     0.234000000     4.196000000
H    -1.732000000     0.047000000     4.835000000
H    -0.910000000    -0.596000000     3.738000000
O     1.371000000     2.897000000    -4.235000000
H     0.635000000     3.226000000    -3.719000000
H     1.752000000     2.205000000    -3.695000000
O     4.839000000    -0.859000000     5.486000000
H     5.642000000    -1.142000000     5.048000000
H     4.790000000    -1.403000000     6.272000000
O    -2.288000000     4.139000000    -0.760000000
H    -1.861000000     4.240000000     0.091000000
H    -3.190000000     3.900000000    -0.548000000
O     2.852000000    -2.461000000     3.211000000
H     3.678000000    -2.494000000     3.694000000
H     2.935000000    -1.692000000     2.647000000
O    -0.844000000     4.073000000     1.701000000
H    -1.317000000     4.844000000     2.015000000
H    -0.757000000     3.514000000     2.473000000
