158
-3029.38327
C     1.339000000    -0.322000000    -0.536000000
H     2.216000000    -0.688000000    -1.062000000
C     0.258000000     0.124000000    -1.279000000
H     0.424000000     0.066000000    -2.352000000
C    -0.899000000     0.522000000    -0.628000000
H    -1.825000000     0.549000000    -1.239000000
C    -0.989000000     0.479000000     0.749000000
H    -1.941000000     0.766000000     1.188000000
C     0.069000000     0.016000000     1.497000000
H    -0.093000000    -0.087000000     2.567000000
C     1.274000000    -0.376000000     0.835000000
C     2.355000000    -1.132000000     1.600000000
O     3.137000000    -1.754000000     0.910000000
O     2.314000000    -1.178000000     2.803000000
O     4.031000000    -5.946000000    -0.103000000
H     4.946000000    -5.667000000    -0.138000000
H     3.688000000    -5.540000000     0.693000000
O    -2.673000000    -2.766000000     2.413000000
H    -3.282000000    -2.037000000     2.302000000
H    -3.204000000    -3.467000000     2.792000000
O     3.128000000     1.480000000    -2.585000000
H     2.776000000     2.239000000    -2.120000000
H     3.493000000     0.925000000    -1.895000000
O    -2.439000000     2.344000000     3.188000000
H    -2.045000000     3.214000000     3.130000000
H    -2.792000000     2.182000000     2.313000000
O     2.997000000    -0.843000000    -4.742000000
H     2.915000000    -1.141000000    -5.648000000
H     3.280000000     0.068000000    -4.814000000
O     1.533000000     0.474000000     4.801000000
H     1.462000000     0.056000000     5.659000000
H     1.747000000    -0.242000000     4.203000000
O    -5.687000000    -2.871000000    -0.033000000
H    -5.435000000    -3.226000000    -0.886000000
H    -6.327000000    -3.496000000     0.307000000
O    -4.973000000    -0.680000000    -5.230000000
H    -5.328000000    -1.566000000    -5.148000000
H    -5.030000000    -0.486000000    -6.166000000
O     3.934000000     1.410000000     6.764000000
H     3.845000000     0.616000000     6.237000000
H     4.778000000     1.778000000     6.504000000
O    -4.599000000    -1.616000000     4.718000000
H    -4.413000000    -1.933000000     5.602000000
H    -4.001000000    -0.879000000     4.597000000
O     0.960000000    -2.646000000    -3.905000000
H     1.641000000    -1.973000000    -3.873000000
H     0.924000000    -2.993000000    -3.014000000
O     4.258000000     1.621000000    -5.054000000
H     3.921000000     1.806000000    -4.178000000
H     4.681000000     2.436000000    -5.325000000
O    -4.778000000    -0.554000000     1.172000000
H    -5.394000000    -1.141000000     1.610000000
H    -4.956000000    -0.673000000     0.239000000
O     2.229000000    -3.457000000    -1.104000000
H     2.730000000    -2.784000000    -0.643000000
H     2.570000000    -4.284000000    -0.764000000
O    -0.014000000    -4.282000000     1.860000000
H    -0.871000000    -3.917000000     1.639000000
H     0.113000000    -4.057000000     2.782000000
O    -4.414000000     2.212000000     0.341000000
H    -4.545000000     1.388000000     0.811000000
H    -5.022000000     2.166000000    -0.397000000
O     4.932000000    -1.004000000    -0.719000000
H     4.301000000    -1.326000000    -0.075000000
H     5.783000000    -1.112000000    -0.294000000
O    -6.235000000     1.912000000    -4.304000000
H    -7.143000000     1.622000000    -4.211000000
H    -5.739000000     1.106000000    -4.444000000
O     2.682000000    -4.447000000     1.691000000
H     1.730000000    -4.482000000     1.595000000
H     2.876000000    -3.518000000     1.816000000
O     5.005000000    -2.321000000     3.138000000
H     5.510000000    -1.567000000     3.442000000
H     4.341000000    -1.947000000     2.559000000
O    -5.840000000    -0.074000000    -1.724000000
H    -6.169000000    -0.835000000    -2.202000000
H    -5.985000000     0.663000000    -2.317000000
O    -2.758000000    -1.790000000    -2.553000000
H    -2.368000000    -2.178000000    -1.770000000
H    -3.692000000    -1.986000000    -2.478000000
O     0.691000000     5.714000000     0.103000000
H     0.862000000     4.797000000     0.316000000
H    -0.118000000     5.922000000     0.570000000
O     1.390000000     3.140000000     0.527000000
H     0.777000000     2.416000000     0.653000000
H     2.250000000     2.723000000     0.484000000
O     0.973000000     3.102000000    -6.914000000
H     0.884000000     3.751000000    -6.216000000
H     0.830000000     2.261000000    -6.479000000
O     3.574000000    -1.870000000     5.652000000
H     3.770000000    -1.737000000     4.725000000
H     4.249000000    -2.477000000     5.955000000
O    -1.974000000     5.836000000    -3.013000000
H    -1.836000000     6.356000000    -2.221000000
H    -2.175000000     4.958000000    -2.691000000
O    -1.969000000     3.314000000    -2.693000000
H    -1.704000000     2.789000000    -1.937000000
H    -2.145000000     2.672000000    -3.381000000
O    -5.087000000    -3.825000000    -2.440000000
H    -4.617000000    -4.519000000    -2.901000000
H    -5.644000000    -3.427000000    -3.109000000
O    -1.775000000    -2.999000000     5.446000000
H    -2.112000000    -3.735000000     4.935000000
H    -0.976000000    -2.736000000     4.989000000
O     0.416000000     1.330000000    -4.899000000
H     0.909000000     1.376000000    -4.079000000
H    -0.501000000     1.391000000    -4.631000000
O     7.500000000    -1.912000000    -0.581000000
H     7.895000000    -2.280000000     0.209000000
H     7.888000000    -2.412000000    -1.299000000
O     5.772000000    -4.378000000     4.757000000
H     5.891000000    -4.125000000     5.673000000
H     5.659000000    -3.549000000     4.292000000
O    -1.883000000    -3.369000000    -4.533000000
H    -0.938000000    -3.406000000    -4.383000000
H    -2.179000000    -2.621000000    -4.013000000
O     3.084000000    -6.418000000     3.652000000
H     2.999000000    -5.725000000     2.997000000
H     3.014000000    -5.963000000     4.491000000
O     0.426000000    -1.120000000    -6.067000000
H     0.428000000    -1.709000000    -5.312000000
H     0.495000000    -0.244000000    -5.687000000
O     2.930000000     3.706000000     5.187000000
H     2.386000000     4.019000000     5.910000000
H     2.943000000     2.755000000     5.292000000
O     1.235000000    -1.188000000     6.979000000
H     0.720000000    -1.866000000     7.419000000
H     2.084000000    -1.599000000     6.819000000
O    -1.673000000    -3.049000000    -0.133000000
H    -0.924000000    -2.476000000     0.033000000
H    -2.280000000    -2.863000000     0.584000000
O     5.723000000    -1.076000000    -3.478000000
H     4.853000000    -1.019000000    -3.873000000
H     5.556000000    -1.139000000    -2.538000000
O    -0.344000000     2.721000000     5.409000000
H     0.065000000     2.608000000     6.268000000
H     0.126000000     2.113000000     4.839000000
O    -2.308000000    -0.081000000     4.614000000
H    -1.569000000    -0.007000000     5.217000000
H    -2.220000000     0.675000000     4.032000000
O     4.455000000     1.112000000     2.990000000
H     5.028000000     0.804000000     3.693000000
H     3.571000000     1.021000000     3.345000000
O    -4.593000000     5.116000000     2.340000000
H    -5.485000000     4.993000000     2.016000000
H    -4.044000000     4.645000000     1.713000000
O     3.778000000     1.881000000     0.198000000
H     3.851000000     1.402000000     1.024000000
H     4.681000000     2.092000000    -0.037000000
O     1.002000000    -3.065000000     4.210000000
H     1.780000000    -3.076000000     4.768000000
H     1.209000000    -2.433000000     3.522000000
O    -2.286000000     0.793000000    -4.117000000
H    -2.492000000     0.056000000    -3.543000000
H    -2.785000000     0.622000000    -4.916000000
O    -5.878000000     0.984000000     3.261000000
H    -6.093000000     0.140000000     3.656000000
H    -5.591000000     0.767000000     2.373000000
