158
-3021.50153
C    -1.444000000    -0.171000000     0.418000000
H    -2.448000000    -0.344000000     0.799000000
C    -0.548000000     0.669000000     0.957000000
H    -0.890000000     1.175000000     1.856000000
C     0.725000000     0.882000000     0.433000000
H     1.412000000     1.626000000     0.886000000
C     1.148000000     0.109000000    -0.612000000
H     2.185000000     0.211000000    -0.921000000
C     0.310000000    -0.874000000    -1.167000000
H     0.748000000    -1.539000000    -1.907000000
C    -1.006000000    -0.994000000    -0.679000000
C    -1.883000000    -2.036000000    -1.338000000
O    -1.365000000    -3.034000000    -1.835000000
O    -3.054000000    -1.942000000    -1.372000000
O    -3.004000000    -4.513000000    -3.317000000
H    -2.464000000    -4.007000000    -2.710000000
H    -3.250000000    -5.295000000    -2.824000000
O    -3.761000000    -6.207000000     1.667000000
H    -3.713000000    -7.122000000     1.391000000
H    -3.158000000    -5.748000000     1.083000000
O     3.847000000     2.862000000    -1.959000000
H     4.104000000     3.282000000    -1.138000000
H     2.890000000     2.851000000    -1.932000000
O    -7.340000000    -4.522000000     0.176000000
H    -6.924000000    -4.738000000    -0.658000000
H    -6.730000000    -3.919000000     0.600000000
O     3.712000000    -0.878000000     1.155000000
H     3.168000000    -0.787000000     1.938000000
H     3.384000000    -1.667000000     0.725000000
O    -2.123000000     1.019000000     4.549000000
H    -2.004000000     1.966000000     4.477000000
H    -2.981000000     0.855000000     4.158000000
O    -0.523000000     4.504000000     1.685000000
H    -1.134000000     4.826000000     2.348000000
H    -0.694000000     3.563000000     1.639000000
O     2.803000000    -0.812000000     3.607000000
H     2.653000000    -1.738000000     3.415000000
H     1.962000000    -0.497000000     3.938000000
O    -2.146000000    -4.691000000     0.307000000
H    -1.225000000    -4.802000000     0.069000000
H    -2.426000000    -3.914000000    -0.177000000
O    -4.307000000     1.094000000     2.727000000
H    -5.082000000     1.607000000     2.955000000
H    -4.632000000     0.424000000     2.125000000
O    -4.339000000     1.821000000    -4.483000000
H    -4.048000000     1.021000000    -4.045000000
H    -4.844000000     1.511000000    -5.235000000
O     1.011000000     2.764000000    -2.336000000
H     0.266000000     2.326000000    -2.746000000
H     0.959000000     2.513000000    -1.413000000
O     4.950000000    -3.167000000    -2.496000000
H     5.492000000    -3.912000000    -2.758000000
H     5.007000000    -3.154000000    -1.540000000
O    -4.791000000    -0.591000000    -0.011000000
H    -5.249000000    -1.431000000    -0.001000000
H    -4.117000000    -0.694000000    -0.683000000
O     0.763000000    -2.110000000     1.657000000
H     0.718000000    -1.353000000     1.074000000
H     0.634000000    -1.747000000     2.533000000
O    -3.697000000    -0.481000000    -3.480000000
H    -3.462000000    -1.179000000    -2.870000000
H    -4.623000000    -0.631000000    -3.671000000
O    -1.196000000    -5.729000000    -4.915000000
H    -1.807000000    -5.242000000    -4.361000000
H    -1.618000000    -6.578000000    -5.047000000
O    -6.381000000    -0.970000000    -3.322000000
H    -7.024000000    -0.407000000    -3.754000000
H    -6.868000000    -1.389000000    -2.612000000
O     0.538000000    -3.720000000    -3.902000000
H     0.076000000    -3.160000000    -3.279000000
H    -0.079000000    -4.427000000    -4.092000000
O     8.110000000     0.995000000     1.136000000
H     7.250000000     1.109000000     0.731000000
H     7.942000000     1.055000000     2.077000000
O     7.258000000     1.673000000     3.677000000
H     6.469000000     1.131000000     3.696000000
H     6.981000000     2.512000000     4.045000000
O     5.409000000     0.905000000    -3.321000000
H     5.232000000     1.663000000    -2.764000000
H     4.588000000     0.756000000    -3.791000000
O     1.297000000     2.171000000     6.541000000
H     2.239000000     2.012000000     6.474000000
H     1.039000000     2.451000000     5.662000000
O    -5.805000000    -1.969000000    -5.788000000
H    -6.051000000    -1.649000000    -4.920000000
H    -5.800000000    -2.922000000    -5.699000000
O     3.621000000     1.452000000     4.867000000
H     3.750000000     2.101000000     4.175000000
H     3.167000000     0.729000000     4.434000000
O    -2.519000000     3.653000000     4.144000000
H    -2.525000000     4.580000000     3.904000000
H    -3.441000000     3.431000000     4.269000000
O     5.504000000     1.282000000     0.517000000
H     5.456000000     1.120000000    -0.425000000
H     4.933000000     0.619000000     0.904000000
O    -5.208000000    -4.438000000    -5.091000000
H    -4.471000000    -4.792000000    -4.593000000
H    -5.311000000    -5.041000000    -5.827000000
O     2.788000000    -2.043000000    -3.968000000
H     2.160000000    -2.759000000    -4.065000000
H     3.520000000    -2.430000000    -3.488000000
O    -3.808000000    -7.085000000    -2.295000000
H    -4.430000000    -7.441000000    -1.661000000
H    -3.437000000    -7.855000000    -2.725000000
O    -3.343000000     3.018000000     1.047000000
H    -3.950000000     3.645000000     1.441000000
H    -3.441000000     2.225000000     1.576000000
O    -2.838000000     2.351000000    -1.565000000
H    -3.731000000     2.036000000    -1.710000000
H    -2.803000000     2.549000000    -0.630000000
O     0.108000000    -0.686000000     3.981000000
H    -0.479000000     0.066000000     3.899000000
H    -0.477000000    -1.432000000     4.112000000
O     5.668000000    -0.588000000     4.209000000
H     5.795000000    -1.008000000     5.059000000
H     4.749000000    -0.752000000     3.996000000
O    -6.665000000    -4.635000000    -2.614000000
H    -6.042000000    -4.438000000    -3.314000000
H    -7.066000000    -5.463000000    -2.878000000
O    -6.710000000     1.292000000     0.629000000
H    -6.713000000     1.728000000    -0.223000000
H    -6.281000000     0.452000000     0.466000000
O     1.138000000     3.401000000     4.201000000
H     0.598000000     3.543000000     3.424000000
H     2.032000000     3.338000000     3.864000000
O     6.483000000     3.768000000     0.472000000
H     6.096000000     3.061000000     0.988000000
H     6.864000000     4.358000000     1.121000000
O    -5.232000000    -3.140000000    -0.964000000
H    -5.548000000    -3.710000000    -1.664000000
H    -4.424000000    -2.760000000    -1.310000000
O    -0.110000000    -0.874000000    -5.063000000
H    -0.198000000    -1.133000000    -5.981000000
H    -0.016000000    -1.700000000    -4.589000000
O     0.439000000     5.871000000    -0.714000000
H     0.514000000     5.051000000    -1.202000000
H     0.090000000     5.611000000     0.139000000
O     3.198000000     0.594000000    -4.617000000
H     3.100000000    -0.341000000    -4.436000000
H     2.300000000     0.923000000    -4.668000000
O     2.494000000    -3.620000000     0.549000000
H     2.126000000    -4.094000000    -0.197000000
H     1.776000000    -3.071000000     0.863000000
O     0.429000000    -5.075000000    -0.705000000
H     0.326000000    -6.027000000    -0.707000000
H     0.103000000    -4.796000000    -1.561000000
O     3.878000000     3.502000000     3.217000000
H     3.751000000     4.014000000     2.419000000
H     4.031000000     4.156000000     3.899000000
O    -0.843000000     1.434000000    -3.802000000
H    -0.764000000     0.560000000    -4.185000000
H    -1.502000000     1.335000000    -3.115000000
O    -4.595000000    -3.426000000     2.178000000
H    -3.659000000    -3.234000000     2.223000000
H    -4.669000000    -4.103000000     1.505000000
O     3.743000000     6.001000000     1.613000000
H     2.823000000     6.259000000     1.559000000
H     4.074000000     6.107000000     0.721000000
