158
-3042.40016
C     0.426000000    -0.731000000     1.172000000
H     0.745000000    -1.222000000     2.088000000
C    -0.173000000     0.524000000     1.225000000
H    -0.369000000     0.972000000     2.196000000
C    -0.466000000     1.129000000    -0.051000000
H    -1.048000000     2.111000000    -0.056000000
C    -0.193000000     0.530000000    -1.265000000
H    -0.407000000     1.007000000    -2.218000000
C     0.440000000    -0.727000000    -1.268000000
H     0.600000000    -1.246000000    -2.210000000
C     0.707000000    -1.422000000    -0.066000000
C     1.357000000    -2.754000000     0.051000000
O     1.741000000    -3.269000000     1.081000000
O     1.600000000    -3.298000000    -1.001000000
O     3.259000000     0.930000000    -0.215000000
H     3.526000000     1.079000000    -1.122000000
H     2.502000000     0.348000000    -0.280000000
O    -2.958000000    -0.789000000     3.971000000
H    -2.180000000    -0.281000000     4.202000000
H    -3.005000000    -1.472000000     4.640000000
O    -0.696000000     2.881000000     4.310000000
H    -0.853000000     3.543000000     3.636000000
H    -1.513000000     2.848000000     4.807000000
O     2.918000000    -5.496000000     4.135000000
H     2.275000000    -5.783000000     3.487000000
H     2.816000000    -4.545000000     4.170000000
O    -3.363000000     2.392000000     4.912000000
H    -3.311000000     1.924000000     4.078000000
H    -4.123000000     2.012000000     5.352000000
O    -4.357000000    -0.903000000    -3.574000000
H    -5.028000000    -1.555000000    -3.371000000
H    -4.420000000    -0.265000000    -2.863000000
O     2.551000000     0.207000000     6.299000000
H     2.141000000     1.071000000     6.304000000
H     3.059000000     0.187000000     5.488000000
O    -2.181000000     3.784000000    -3.980000000
H    -2.546000000     4.237000000    -4.739000000
H    -1.495000000     3.223000000    -4.342000000
O     3.242000000    -2.898000000     3.216000000
H     4.114000000    -2.682000000     2.885000000
H     2.750000000    -3.164000000     2.439000000
O     4.946000000    -3.956000000    -4.572000000
H     4.432000000    -3.664000000    -5.325000000
H     4.627000000    -3.424000000    -3.844000000
O     5.477000000    -1.591000000     2.008000000
H     5.888000000    -2.172000000     1.368000000
H     5.953000000    -0.766000000     1.922000000
O    -1.908000000    -2.812000000     2.294000000
H    -2.317000000    -2.219000000     2.925000000
H    -1.069000000    -3.043000000     2.692000000
O     5.928000000    -2.944000000    -0.457000000
H     5.075000000    -3.333000000    -0.264000000
H     6.426000000    -3.652000000    -0.869000000
O     0.157000000     1.369000000    -4.714000000
H    -0.559000000     0.736000000    -4.756000000
H     0.663000000     1.212000000    -5.511000000
O    -2.830000000    -2.394000000    -0.258000000
H    -2.423000000    -2.408000000     0.609000000
H    -2.375000000    -3.080000000    -0.746000000
O     2.449000000    -5.789000000     0.497000000
H     2.251000000    -4.855000000     0.421000000
H     1.593000000    -6.209000000     0.581000000
O     1.361000000     2.748000000     6.217000000
H     0.831000000     2.327000000     5.539000000
H     0.722000000     3.085000000     6.845000000
O     5.741000000    -5.338000000     2.478000000
H     5.659000000    -4.791000000     3.259000000
H     4.854000000    -5.382000000     2.122000000
O    -5.654000000     2.490000000     2.966000000
H    -6.361000000     2.730000000     3.565000000
H    -5.159000000     3.300000000     2.843000000
O     5.554000000    -0.711000000    -2.460000000
H     4.826000000    -0.210000000    -2.828000000
H     5.136000000    -1.444000000    -2.007000000
O    -1.344000000     5.160000000    -1.783000000
H    -1.538000000     4.584000000    -2.523000000
H    -2.197000000     5.335000000    -1.386000000
O     1.498000000     5.297000000    -1.104000000
H     1.681000000     4.834000000    -1.922000000
H     0.545000000     5.265000000    -1.019000000
O     2.173000000     3.807000000     2.947000000
H     2.288000000     4.500000000     3.597000000
H     1.251000000     3.560000000     3.020000000
O    -0.311000000    -7.133000000     1.280000000
H    -0.391000000    -7.797000000     1.965000000
H     0.116000000    -7.588000000     0.554000000
O    -5.635000000     3.653000000     0.275000000
H    -6.031000000     4.438000000     0.654000000
H    -6.378000000     3.138000000    -0.039000000
O    -5.622000000    -0.032000000     2.058000000
H    -4.849000000    -0.174000000     2.605000000
H    -5.801000000     0.905000000     2.135000000
O    -1.821000000    -0.523000000    -4.994000000
H    -1.638000000    -1.409000000    -4.683000000
H    -2.647000000    -0.286000000    -4.571000000
O     2.190000000    -2.933000000     5.656000000
H     2.482000000    -2.100000000     6.026000000
H     2.285000000    -2.821000000     4.710000000
O    -1.281000000    -4.009000000    -2.004000000
H    -0.325000000    -4.035000000    -2.042000000
H    -1.546000000    -3.666000000    -2.857000000
O     3.286000000     0.945000000    -2.962000000
H     2.734000000     1.711000000    -3.119000000
H     2.913000000     0.263000000    -3.521000000
O     3.975000000    -6.701000000    -1.750000000
H     3.326000000    -6.392000000    -1.118000000
H     4.704000000    -7.012000000    -1.214000000
O    -0.185000000    -4.568000000     5.501000000
H    -0.070000000    -4.786000000     4.576000000
H     0.523000000    -3.952000000     5.691000000
O     0.177000000    -4.510000000     2.827000000
H     0.698000000    -4.017000000     2.192000000
H    -0.113000000    -5.286000000     2.348000000
O     1.211000000    -5.781000000    -2.760000000
H     1.603000000    -5.254000000    -2.064000000
H     1.870000000    -6.446000000    -2.957000000
O    -0.713000000    -0.731000000     5.946000000
H     0.215000000    -0.781000000     6.176000000
H    -1.100000000    -1.513000000     6.341000000
O    -1.623000000    -3.266000000    -4.593000000
H    -0.879000000    -3.381000000    -5.185000000
H    -2.300000000    -3.845000000    -4.944000000
O    -4.232000000     1.570000000    -5.619000000
H    -3.679000000     1.296000000    -4.888000000
H    -3.804000000     2.354000000    -5.962000000
O     3.370000000    -2.374000000    -2.756000000
H     2.777000000    -2.881000000    -2.201000000
H     2.791000000    -1.842000000    -3.302000000
O    -4.316000000    -0.038000000    -0.647000000
H    -3.763000000    -0.819000000    -0.667000000
H    -4.882000000    -0.165000000     0.114000000
O    -0.910000000     6.494000000    -4.578000000
H    -0.896000000     5.737000000    -5.164000000
H    -0.839000000     6.119000000    -3.701000000
O     1.332000000     3.465000000    -3.093000000
H     1.116000000     3.862000000    -3.937000000
H     1.092000000     2.544000000    -3.193000000
O    -3.726000000     1.952000000    -2.593000000
H    -3.505000000     1.561000000    -1.747000000
H    -3.088000000     2.657000000    -2.705000000
O     3.948000000     1.573000000     2.538000000
H     3.878000000     1.213000000     1.654000000
H     3.235000000     2.210000000     2.594000000
O     2.146000000    -1.224000000    -4.903000000
H     2.699000000    -0.706000000    -5.487000000
H     1.912000000    -1.997000000    -5.417000000
O     4.039000000    -0.522000000     4.221000000
H     4.125000000    -1.397000000     3.843000000
H     3.878000000     0.049000000     3.469000000
O    -3.259000000     3.030000000     1.467000000
H    -2.966000000     2.343000000     0.867000000
H    -4.044000000     3.390000000     1.055000000
O    -3.859000000     5.520000000    -1.267000000
H    -4.466000000     6.253000000    -1.373000000
H    -4.421000000     4.747000000    -1.232000000
O    -1.126000000     4.504000000     2.251000000
H    -1.931000000     4.021000000     2.064000000
H    -1.176000000     5.279000000     1.690000000
