158
-3019.02127
C    -1.016000000    -0.865000000    -0.504000000
H    -1.836000000    -1.511000000    -0.806000000
C    -1.189000000     0.530000000    -0.262000000
H    -2.165000000     0.997000000    -0.365000000
C    -0.054000000     1.268000000     0.094000000
H    -0.086000000     2.368000000     0.135000000
C     1.107000000     0.581000000     0.296000000
H     2.006000000     1.165000000     0.477000000
C     1.252000000    -0.797000000     0.066000000
H     2.103000000    -1.383000000     0.406000000
C     0.154000000    -1.570000000    -0.340000000
C     0.211000000    -3.067000000    -0.344000000
O    -0.737000000    -3.727000000    -0.743000000
O     1.277000000    -3.630000000    -0.125000000
O     5.190000000     1.203000000     1.186000000
H     4.930000000     1.997000000     0.720000000
H     6.102000000     1.062000000     0.930000000
O    -2.561000000    -3.047000000     2.863000000
H    -2.865000000    -3.013000000     3.770000000
H    -2.021000000    -2.263000000     2.761000000
O     3.847000000     2.088000000    -3.958000000
H     2.997000000     2.431000000    -3.684000000
H     3.636000000     1.318000000    -4.485000000
O     0.050000000    -6.145000000    -5.010000000
H     0.383000000    -5.975000000    -4.129000000
H    -0.412000000    -6.980000000    -4.934000000
O    -3.286000000    -5.771000000    -4.183000000
H    -3.133000000    -5.128000000    -3.491000000
H    -2.672000000    -6.480000000    -3.991000000
O     1.996000000     7.477000000     0.804000000
H     1.828000000     8.356000000     1.144000000
H     1.219000000     7.268000000     0.285000000
O    -0.219000000     2.239000000    -3.850000000
H    -0.957000000     2.511000000    -4.397000000
H    -0.072000000     1.323000000    -4.084000000
O    -2.033000000    -5.188000000     0.978000000
H    -1.749000000    -4.715000000     0.196000000
H    -2.140000000    -4.509000000     1.644000000
O    -4.616000000    -5.588000000    -0.471000000
H    -4.054000000    -6.127000000     0.086000000
H    -4.046000000    -4.879000000    -0.771000000
O     4.413000000    -6.982000000    -2.695000000
H     4.736000000    -7.792000000    -2.300000000
H     3.950000000    -6.537000000    -1.984000000
O    -3.302000000    -6.236000000     3.444000000
H    -2.861000000    -6.475000000     4.259000000
H    -2.593000000    -5.979000000     2.854000000
O     1.838000000     2.571000000    -1.917000000
H     2.058000000     1.644000000    -1.822000000
H     1.109000000     2.581000000    -2.537000000
O     5.124000000    -1.563000000     1.812000000
H     4.930000000    -0.658000000     1.567000000
H     5.631000000    -1.907000000     1.077000000
O     0.657000000    -6.105000000     0.983000000
H    -0.257000000    -6.107000000     1.266000000
H     0.761000000    -5.277000000     0.515000000
O     3.402000000     3.576000000     3.435000000
H     3.825000000     4.331000000     3.845000000
H     2.618000000     3.936000000     3.020000000
O     2.835000000    -3.165000000     2.282000000
H     3.617000000    -2.629000000     2.152000000
H     2.500000000    -3.318000000     1.399000000
O     3.381000000    -5.325000000    -0.506000000
H     3.963000000    -5.481000000     0.238000000
H     2.657000000    -4.816000000    -0.141000000
O    -3.769000000     3.517000000    -3.474000000
H    -3.054000000     3.311000000    -4.076000000
H    -4.520000000     3.036000000    -3.822000000
O     0.161000000     3.553000000     4.367000000
H    -0.629000000     3.016000000     4.312000000
H     0.279000000     3.898000000     3.482000000
O     6.056000000    -2.690000000    -0.758000000
H     5.907000000    -1.812000000    -1.109000000
H     5.722000000    -3.278000000    -1.435000000
O     2.428000000    -6.587000000     3.294000000
H     1.718000000    -6.281000000     2.731000000
H     3.226000000    -6.378000000     2.808000000
O    -4.972000000    -1.163000000     1.706000000
H    -4.986000000    -0.586000000     2.470000000
H    -4.529000000    -1.954000000     2.012000000
O     6.106000000     2.191000000    -2.238000000
H     5.246000000     2.056000000    -2.634000000
H     6.421000000     1.309000000    -2.040000000
O     5.107000000     4.856000000     1.044000000
H     4.878000000     5.653000000     1.520000000
H     4.299000000     4.603000000     0.597000000
O     5.584000000     1.673000000     4.608000000
H     6.271000000     2.340000000     4.600000000
H     4.966000000     1.957000000     3.935000000
O    -4.134000000    -0.215000000    -3.476000000
H    -3.203000000    -0.328000000    -3.281000000
H    -4.516000000     0.086000000    -2.651000000
O    -2.887000000    -3.696000000    -2.155000000
H    -2.042000000    -3.840000000    -1.729000000
H    -2.881000000    -2.769000000    -2.393000000
O     0.581000000     7.106000000     3.802000000
H    -0.117000000     7.451000000     3.244000000
H     0.746000000     6.227000000     3.461000000
O     4.489000000    -1.460000000    -2.772000000
H     3.861000000    -2.146000000    -2.999000000
H     4.830000000    -1.159000000    -3.614000000
O     0.737000000    -8.692000000     0.047000000
H     0.802000000    -9.069000000     0.924000000
H     0.966000000    -7.770000000     0.165000000
O    -2.192000000     7.015000000     2.504000000
H    -2.333000000     6.118000000     2.807000000
H    -3.054000000     7.426000000     2.563000000
O    -0.419000000     5.894000000    -0.320000000
H    -0.339000000     5.593000000    -1.225000000
H    -1.142000000     6.521000000    -0.338000000
O     0.122000000    -4.986000000     4.003000000
H     0.931000000    -4.675000000     3.595000000
H     0.391000000    -5.284000000     4.872000000
O    -0.288000000     5.032000000    -2.887000000
H    -0.540000000     4.108000000    -2.887000000
H    -0.108000000     5.231000000    -3.806000000
O     2.143000000    -3.093000000    -3.282000000
H     1.641000000    -3.272000000    -4.077000000
H     1.821000000    -3.732000000    -2.646000000
O    -4.747000000     5.007000000     1.233000000
H    -4.280000000     4.902000000     2.062000000
H    -4.210000000     4.537000000     0.595000000
O     2.164000000     3.107000000     6.155000000
H     1.353000000     3.153000000     5.648000000
H     2.858000000     3.122000000     5.496000000
O     0.698000000    -5.411000000    -2.471000000
H     0.171000000    -4.760000000    -2.007000000
H     1.226000000    -5.824000000    -1.788000000
O    -2.340000000     1.956000000     4.831000000
H    -1.780000000     1.687000000     5.559000000
H    -3.094000000     2.371000000     5.250000000
O     2.900000000     4.974000000    -0.761000000
H     2.590000000     4.164000000    -1.165000000
H     2.108000000     5.389000000    -0.418000000
O    -5.418000000     0.349000000    -0.924000000
H    -6.367000000     0.288000000    -1.036000000
H    -5.273000000     0.150000000     0.001000000
O     1.133000000    -0.393000000    -2.867000000
H     1.261000000    -0.439000000    -1.919000000
H     1.154000000    -1.306000000    -3.155000000
O    -0.887000000    -0.539000000     2.619000000
H    -0.476000000    -0.071000000     1.892000000
H    -1.431000000     0.120000000     3.050000000
O    -1.587000000    -1.399000000    -3.554000000
H    -0.836000000    -1.253000000    -4.130000000
H    -2.166000000    -1.973000000    -4.056000000
O     0.694000000    -1.663000000     4.527000000
H     1.553000000    -1.808000000     4.130000000
H     0.205000000    -1.170000000     3.868000000
O    -3.770000000     3.323000000    -0.524000000
H    -3.678000000     3.324000000    -1.477000000
H    -4.623000000     2.918000000    -0.366000000
O    -3.307000000     4.578000000     3.690000000
H    -3.770000000     4.862000000     4.478000000
H    -3.002000000     3.695000000     3.896000000
O     0.469000000     4.256000000     1.800000000
H     0.694000000     3.510000000     1.245000000
H     0.023000000     4.866000000     1.212000000
