158
-3028.79658
C    -0.414000000    -0.691000000     1.252000000
H    -0.749000000    -1.190000000     2.157000000
C    -0.588000000     0.670000000     0.998000000
H    -1.010000000     1.439000000     1.640000000
C    -0.083000000     1.220000000    -0.179000000
H    -0.151000000     2.251000000    -0.401000000
C     0.568000000     0.376000000    -1.134000000
H     1.086000000     0.684000000    -2.038000000
C     0.616000000    -0.999000000    -0.869000000
H     1.107000000    -1.619000000    -1.614000000
C     0.078000000    -1.551000000     0.283000000
C     0.085000000    -3.041000000     0.540000000
O    -0.218000000    -3.500000000     1.618000000
O     0.354000000    -3.863000000    -0.297000000
O    -0.825000000    -7.271000000     4.361000000
H    -0.103000000    -7.895000000     4.442000000
H    -0.664000000    -6.628000000     5.051000000
O     3.319000000     3.367000000     1.811000000
H     4.240000000     3.223000000     1.596000000
H     2.895000000     3.511000000     0.965000000
O    -3.340000000    -2.814000000     4.438000000
H    -2.903000000    -2.860000000     5.288000000
H    -4.264000000    -2.967000000     4.636000000
O    -2.004000000     1.499000000     4.442000000
H    -2.074000000     1.814000000     5.343000000
H    -2.887000000     1.202000000     4.222000000
O    -2.080000000     7.467000000    -0.436000000
H    -2.864000000     7.412000000    -0.983000000
H    -1.473000000     8.008000000    -0.942000000
O     4.775000000     3.769000000    -2.172000000
H     4.772000000     2.833000000    -1.969000000
H     4.182000000     4.156000000    -1.528000000
O     0.416000000    -3.453000000     6.441000000
H    -0.402000000    -3.947000000     6.491000000
H     0.675000000    -3.509000000     5.521000000
O    -4.686000000     1.635000000     3.742000000
H    -4.893000000     1.344000000     2.854000000
H    -5.276000000     1.130000000     4.303000000
O     1.057000000    -3.666000000     3.821000000
H     1.918000000    -3.493000000     3.441000000
H     0.452000000    -3.602000000     3.083000000
O    -3.361000000    -6.919000000     0.914000000
H    -2.427000000    -6.709000000     0.949000000
H    -3.640000000    -6.625000000     0.046000000
O     2.211000000    -6.602000000    -4.180000000
H     2.375000000    -7.361000000    -3.621000000
H     1.722000000    -5.995000000    -3.624000000
O     3.355000000    -3.199000000     2.459000000
H     3.833000000    -3.571000000     1.718000000
H     3.411000000    -2.253000000     2.330000000
O    -3.024000000    -3.647000000     1.871000000
H    -2.105000000    -3.451000000     1.692000000
H    -3.128000000    -3.474000000     2.807000000
O     2.138000000     2.199000000    -3.324000000
H     2.891000000     1.640000000    -3.132000000
H     1.953000000     2.042000000    -4.250000000
O     4.120000000    -4.460000000     0.097000000
H     3.527000000    -5.003000000    -0.423000000
H     4.992000000    -4.804000000    -0.096000000
O    -2.421000000     3.863000000    -5.348000000
H    -1.720000000     4.195000000    -4.786000000
H    -2.414000000     2.917000000    -5.205000000
O    -1.935000000     0.753000000    -5.103000000
H    -2.432000000     0.322000000    -4.408000000
H    -1.807000000     0.072000000    -5.764000000
O    -4.018000000    -2.665000000    -0.545000000
H    -3.899000000    -2.903000000     0.374000000
H    -3.709000000    -3.429000000    -1.032000000
O     1.965000000    -6.163000000    -0.118000000
H     1.501000000    -5.333000000    -0.009000000
H     1.627000000    -6.720000000     0.584000000
O     0.778000000     0.040000000     4.478000000
H     1.201000000     0.217000000     3.637000000
H    -0.138000000     0.281000000     4.340000000
O     3.970000000    -6.324000000     2.219000000
H     3.754000000    -5.547000000     1.703000000
H     3.253000000    -6.934000000     2.044000000
O     4.276000000    -1.752000000    -1.824000000
H     4.428000000    -2.053000000    -0.928000000
H     3.934000000    -2.522000000    -2.280000000
O    -1.349000000     4.519000000    -1.393000000
H    -1.317000000     3.740000000    -1.949000000
H    -2.176000000     4.440000000    -0.917000000
O    -0.107000000     4.557000000     3.692000000
H     0.400000000     5.276000000     3.314000000
H    -0.837000000     4.434000000     3.086000000
O     4.279000000    -3.720000000    -4.304000000
H     3.491000000    -3.248000000    -4.573000000
H     4.045000000    -4.644000000    -4.387000000
O     2.360000000     7.313000000    -2.178000000
H     1.724000000     6.965000000    -1.554000000
H     2.239000000     6.783000000    -2.965000000
O     1.422000000     6.936000000     2.621000000
H     0.854000000     7.573000000     3.054000000
H     1.714000000     7.377000000     1.823000000
O     4.085000000    -0.607000000     1.758000000
H     3.287000000    -0.086000000     1.846000000
H     4.737000000    -0.136000000     2.278000000
O    -3.579000000    -0.863000000    -3.708000000
H    -3.583000000    -0.780000000    -2.755000000
H    -3.492000000    -1.803000000    -3.866000000
O    -2.474000000    -4.737000000    -1.574000000
H    -1.547000000    -4.497000000    -1.555000000
H    -2.519000000    -5.472000000    -2.185000000
O     2.016000000    -2.460000000    -4.834000000
H     1.945000000    -1.568000000    -4.493000000
H     1.112000000    -2.721000000    -5.010000000
O     0.072000000    -8.232000000     0.432000000
H     0.749000000    -8.535000000     1.037000000
H    -0.452000000    -7.618000000     0.947000000
O    -0.720000000    -6.189000000     1.801000000
H    -0.529000000    -5.274000000     1.592000000
H    -0.561000000    -6.257000000     2.743000000
O     3.377000000    -2.395000000     5.434000000
H     3.747000000    -1.569000000     5.122000000
H     2.430000000    -2.262000000     5.398000000
O    -0.420000000    -7.159000000    -2.111000000
H     0.154000000    -6.394000000    -2.155000000
H    -0.249000000    -7.536000000    -1.247000000
O    -0.885000000     2.520000000    -3.096000000
H    -0.990000000     1.657000000    -3.496000000
H     0.019000000     2.766000000    -3.291000000
O     0.467000000     6.204000000    -0.453000000
H    -0.278000000     5.654000000    -0.696000000
H     0.097000000     6.863000000     0.134000000
O    -2.434000000     7.473000000     2.342000000
H    -2.368000000     7.181000000     1.432000000
H    -3.080000000     6.886000000     2.735000000
O     4.464000000     0.987000000    -1.966000000
H     4.299000000     0.051000000    -2.081000000
H     4.869000000     1.054000000    -1.101000000
O     0.919000000    -4.663000000    -2.744000000
H     0.700000000    -4.304000000    -1.883000000
H     0.434000000    -4.115000000    -3.361000000
O     2.141000000     3.851000000    -0.702000000
H     1.640000000     4.666000000    -0.733000000
H     1.661000000     3.252000000    -1.274000000
O    -2.977000000    -0.340000000    -1.329000000
H    -2.443000000     0.086000000    -0.659000000
H    -3.151000000    -1.213000000    -0.978000000
O     0.752000000     2.088000000    -5.806000000
H    -0.142000000     1.823000000    -6.026000000
H     1.281000000     1.777000000    -6.540000000
O     2.698000000     4.082000000     4.388000000
H     2.975000000     3.808000000     3.513000000
H     1.749000000     3.958000000     4.388000000
O    -0.796000000    -2.106000000    -4.689000000
H    -1.349000000    -2.872000000    -4.537000000
H    -1.054000000    -1.793000000    -5.556000000
O     2.064000000     1.011000000     2.109000000
H     1.435000000     0.896000000     1.397000000
H     2.474000000     1.858000000     1.932000000
O    -5.078000000     3.981000000    -0.711000000
H    -4.684000000     4.018000000     0.161000000
H    -5.842000000     3.414000000    -0.604000000
O    -2.587000000     3.780000000     2.620000000
H    -2.579000000     3.044000000     3.232000000
H    -3.453000000     4.173000000     2.730000000
