158
-3025.89949
C    -0.693000000    -1.207000000    -0.419000000
H    -1.254000000    -2.022000000    -0.870000000
C    -1.161000000     0.090000000    -0.510000000
H    -2.092000000     0.307000000    -1.027000000
C    -0.427000000     1.136000000    -0.046000000
H    -0.747000000     2.216000000    -0.197000000
C     0.846000000     0.967000000     0.489000000
H     1.461000000     1.804000000     0.811000000
C     1.306000000    -0.352000000     0.492000000
H     2.289000000    -0.484000000     0.938000000
C     0.523000000    -1.473000000     0.139000000
C     0.982000000    -2.921000000     0.238000000
O     0.415000000    -3.842000000    -0.286000000
O     2.005000000    -3.117000000     0.882000000
O     5.739000000     1.154000000     0.869000000
H     5.514000000     1.686000000     0.105000000
H     6.682000000     1.009000000     0.790000000
O     6.238000000    -4.008000000    -2.031000000
H     6.516000000    -3.139000000    -1.741000000
H     5.421000000    -4.167000000    -1.559000000
O    -0.567000000    -1.613000000     3.610000000
H    -0.597000000    -2.439000000     4.092000000
H     0.355000000    -1.355000000     3.635000000
O    -3.626000000    -5.454000000     1.582000000
H    -2.890000000    -4.860000000     1.437000000
H    -3.496000000    -5.785000000     2.470000000
O    -4.115000000     5.723000000    -2.553000000
H    -3.743000000     6.390000000    -3.130000000
H    -4.675000000     5.198000000    -3.125000000
O    -3.538000000     7.336000000    -0.406000000
H    -3.698000000     6.735000000    -1.134000000
H    -3.083000000     6.804000000     0.248000000
O     2.043000000     0.129000000     4.060000000
H     2.393000000    -0.759000000     3.991000000
H     2.712000000     0.682000000     3.655000000
O    -5.245000000     4.471000000     2.458000000
H    -5.638000000     5.180000000     1.949000000
H    -5.731000000     4.470000000     3.282000000
O    -4.535000000    -2.838000000     0.873000000
H    -3.910000000    -2.121000000     0.985000000
H    -4.347000000    -3.434000000     1.598000000
O    -1.406000000    -3.766000000     1.906000000
H    -0.671000000    -4.093000000     1.388000000
H    -1.120000000    -2.904000000     2.209000000
O    -4.532000000    -4.389000000    -1.740000000
H    -4.269000000    -4.325000000    -0.822000000
H    -4.052000000    -3.686000000    -2.177000000
O     2.577000000    -5.304000000    -2.676000000
H     2.014000000    -6.071000000    -2.575000000
H     2.661000000    -4.950000000    -1.790000000
O    -0.661000000    -4.105000000     4.581000000
H    -0.867000000    -4.560000000     5.398000000
H    -0.567000000    -4.804000000     3.934000000
O     5.028000000    -1.635000000     1.881000000
H     4.682000000    -1.085000000     1.177000000
H     5.952000000    -1.753000000     1.661000000
O     6.096000000    -5.513000000     1.204000000
H     5.646000000    -4.692000000     1.008000000
H     6.726000000    -5.616000000     0.490000000
O     1.664000000    -6.320000000     0.630000000
H     0.838000000    -6.719000000     0.356000000
H     1.473000000    -5.383000000     0.680000000
O     2.939000000    -2.365000000     3.451000000
H     3.769000000    -1.995000000     3.151000000
H     2.617000000    -2.867000000     2.703000000
O    -5.704000000    -1.219000000    -3.586000000
H    -5.972000000    -0.375000000    -3.222000000
H    -4.825000000    -1.064000000    -3.930000000
O     4.324000000    -3.783000000    -0.312000000
H     4.643000000    -2.881000000    -0.338000000
H     3.475000000    -3.724000000     0.126000000
O    -3.234000000     1.885000000    -3.757000000
H    -4.141000000     1.587000000    -3.826000000
H    -3.145000000     2.174000000    -2.849000000
O     3.335000000     3.980000000     2.576000000
H     2.414000000     3.744000000     2.689000000
H     3.328000000     4.661000000     1.904000000
O     5.716000000    -1.332000000    -1.393000000
H     6.339000000    -0.607000000    -1.451000000
H     4.902000000    -0.976000000    -1.751000000
O     3.845000000    -6.776000000     2.306000000
H     3.055000000    -6.905000000     1.781000000
H     4.454000000    -6.331000000     1.717000000
O    -2.023000000     1.110000000     3.445000000
H    -2.698000000     1.321000000     2.800000000
H    -1.753000000     0.218000000     3.226000000
O    -1.089000000     0.881000000    -5.762000000
H    -0.891000000     0.032000000    -5.365000000
H    -1.816000000     1.225000000    -5.243000000
O    -0.697000000    -6.294000000    -0.661000000
H    -0.488000000    -6.510000000    -1.570000000
H    -0.440000000    -5.376000000    -0.569000000
O     1.574000000     6.666000000     3.722000000
H     0.715000000     6.349000000     3.441000000
H     1.902000000     7.164000000     2.974000000
O     0.541000000     4.957000000    -0.541000000
H     0.410000000     4.578000000    -1.410000000
H    -0.329000000     4.946000000    -0.142000000
O     0.797000000    -7.376000000     3.348000000
H     0.244000000    -8.146000000     3.479000000
H     0.704000000    -7.169000000     2.418000000
O    -0.478000000     3.279000000    -2.950000000
H    -1.374000000     3.133000000    -2.645000000
H    -0.498000000     4.151000000    -3.344000000
O     3.366000000    -1.073000000    -2.519000000
H     2.904000000    -1.862000000    -2.803000000
H     2.752000000    -0.360000000    -2.694000000
O    -2.781000000     5.385000000     1.599000000
H    -2.081000000     5.615000000     2.210000000
H    -3.396000000     4.871000000     2.122000000
O    -2.514000000    -2.878000000    -3.203000000
H    -2.232000000    -2.064000000    -3.620000000
H    -1.946000000    -3.550000000    -3.580000000
O    -1.282000000     5.988000000    -3.831000000
H    -1.544000000     6.887000000    -3.634000000
H    -1.208000000     5.963000000    -4.785000000
O     0.722000000    -3.139000000    -3.051000000
H     0.350000000    -3.297000000    -2.183000000
H     1.273000000    -3.903000000    -3.219000000
O     0.772000000     2.822000000     3.106000000
H     0.360000000     2.231000000     2.476000000
H     0.975000000     2.267000000     3.859000000
O     3.548000000     3.788000000    -3.387000000
H     2.888000000     3.553000000    -4.039000000
H     3.447000000     3.132000000    -2.697000000
O    -3.928000000     1.435000000     1.166000000
H    -4.833000000     1.695000000     1.335000000
H    -3.732000000     1.801000000     0.303000000
O     1.616000000     1.132000000    -2.682000000
H     1.277000000     0.972000000    -1.802000000
H     1.046000000     1.814000000    -3.039000000
O    -6.072000000     1.505000000    -2.906000000
H    -6.904000000     1.696000000    -2.473000000
H    -5.883000000     2.291000000    -3.418000000
O     4.072000000     1.359000000     2.968000000
H     4.018000000     2.315000000     2.942000000
H     4.519000000     1.122000000     2.155000000
O    -6.740000000     2.402000000     0.473000000
H    -6.417000000     2.988000000    -0.211000000
H    -6.482000000     2.824000000     1.292000000
O    -2.316000000     3.942000000    -5.781000000
H    -2.759000000     3.775000000    -4.949000000
H    -2.885000000     3.545000000    -6.440000000
O     1.219000000    -7.460000000    -2.430000000
H     0.796000000    -7.904000000    -3.166000000
H     1.356000000    -8.150000000    -1.781000000
O    -0.664000000    -0.900000000    -3.729000000
H    -0.477000000    -0.156000000    -3.156000000
H    -0.084000000    -1.594000000    -3.416000000
O    -3.082000000     3.562000000    -0.899000000
H    -2.963000000     3.945000000    -0.030000000
H    -3.351000000     4.297000000    -1.450000000
O    -0.967000000     5.093000000     3.522000000
H    -1.448000000     5.057000000     4.349000000
H    -0.642000000     4.201000000     3.394000000
O     2.989000000     5.792000000     0.432000000
H     2.715000000     6.660000000     0.729000000
H     2.185000000     5.383000000     0.112000000
