158
-3021.07848
C    -0.391000000    -1.007000000     0.978000000
H    -0.898000000    -1.755000000     1.583000000
C    -1.076000000     0.063000000     0.619000000
H    -2.105000000     0.184000000     0.949000000
C    -0.658000000     0.958000000    -0.314000000
H    -1.306000000     1.693000000    -0.646000000
C     0.567000000     0.763000000    -0.912000000
H     0.947000000     1.426000000    -1.685000000
C     1.324000000    -0.278000000    -0.470000000
H     2.305000000    -0.511000000    -0.876000000
C     0.883000000    -1.207000000     0.478000000
C     1.762000000    -2.342000000     0.844000000
O     1.391000000    -3.114000000     1.678000000
O     2.901000000    -2.396000000     0.474000000
O     2.066000000     5.457000000    -1.978000000
H     1.427000000     5.455000000    -1.264000000
H     1.540000000     5.576000000    -2.769000000
O    -6.438000000     3.684000000     2.880000000
H    -6.885000000     2.910000000     3.223000000
H    -5.642000000     3.340000000     2.475000000
O     7.270000000    -4.527000000    -0.785000000
H     7.513000000    -4.915000000    -1.625000000
H     6.979000000    -3.642000000    -1.004000000
O     6.442000000    -2.201000000    -1.621000000
H     5.587000000    -1.872000000    -1.343000000
H     7.037000000    -1.463000000    -1.491000000
O    -2.054000000     2.062000000    -3.364000000
H    -1.784000000     2.211000000    -4.271000000
H    -2.480000000     1.206000000    -3.378000000
O    -2.843000000     0.279000000     5.842000000
H    -2.268000000     1.032000000     5.705000000
H    -2.406000000    -0.442000000     5.389000000
O    -0.662000000    -1.009000000    -3.057000000
H    -0.355000000    -0.411000000    -2.375000000
H    -1.607000000    -1.067000000    -2.918000000
O    -1.637000000     4.039000000    -1.407000000
H    -2.362000000     4.649000000    -1.544000000
H    -1.827000000     3.306000000    -1.993000000
O     2.425000000    -5.565000000     1.927000000
H     3.355000000    -5.345000000     1.871000000
H     1.993000000    -4.731000000     2.112000000
O    -0.827000000     0.608000000     3.622000000
H    -1.138000000    -0.274000000     3.415000000
H    -0.028000000     0.466000000     4.130000000
O     5.991000000     1.021000000     3.056000000
H     5.987000000     1.974000000     3.149000000
H     5.073000000     0.791000000     2.910000000
O     4.624000000    -0.423000000     0.150000000
H     4.152000000    -1.252000000     0.224000000
H     4.293000000     0.108000000     0.874000000
O     2.292000000    -5.562000000    -0.847000000
H     2.297000000    -6.064000000    -0.032000000
H     2.273000000    -4.647000000    -0.565000000
O     0.006000000     2.666000000     2.197000000
H    -0.157000000     2.186000000     1.385000000
H    -0.278000000     2.071000000     2.890000000
O    -4.646000000    -2.214000000     5.320000000
H    -4.338000000    -1.852000000     4.489000000
H    -3.847000000    -2.384000000     5.819000000
O     5.549000000    -6.711000000     1.389000000
H     5.389000000    -5.771000000     1.307000000
H     5.231000000    -7.080000000     0.565000000
O    -7.252000000     0.908000000    -2.124000000
H    -6.758000000     1.034000000    -1.314000000
H    -7.673000000     1.753000000    -2.281000000
O    -3.901000000     5.608000000    -1.897000000
H    -4.444000000     6.055000000    -1.248000000
H    -3.240000000     6.255000000    -2.143000000
O     3.395000000     0.699000000     2.574000000
H     3.056000000     1.210000000     1.839000000
H     2.661000000     0.146000000     2.840000000
O     6.408000000    -1.865000000     2.221000000
H     7.345000000    -2.050000000     2.288000000
H     6.337000000    -1.252000000     1.489000000
O     4.362000000    -1.322000000    -4.730000000
H     3.516000000    -0.875000000    -4.713000000
H     5.004000000    -0.626000000    -4.593000000
O    -6.660000000    -0.439000000     0.252000000
H    -6.165000000    -0.102000000     0.998000000
H    -6.653000000    -1.389000000     0.369000000
O    -4.999000000     0.908000000    -3.420000000
H    -4.765000000     1.650000000    -2.863000000
H    -5.906000000     0.710000000    -3.187000000
O    -5.364000000    -4.430000000     3.110000000
H    -4.480000000    -4.065000000     3.066000000
H    -5.687000000    -4.171000000     3.973000000
O    -4.375000000     2.857000000     1.201000000
H    -4.087000000     3.768000000     1.268000000
H    -4.655000000     2.761000000     0.291000000
O     1.691000000    -1.489000000     3.831000000
H     2.568000000    -1.762000000     4.100000000
H     1.463000000    -2.085000000     3.118000000
O    -0.741000000    -4.410000000     2.508000000
H    -1.073000000    -4.870000000     1.737000000
H     0.087000000    -4.025000000     2.220000000
O     4.025000000     4.683000000     0.728000000
H     4.011000000     4.691000000    -0.229000000
H     3.267000000     5.211000000     0.983000000
O     4.424000000    -1.845000000     4.137000000
H     4.972000000    -1.369000000     4.761000000
H     4.971000000    -1.933000000     3.356000000
O     0.355000000    -5.767000000     4.726000000
H     0.006000000    -5.392000000     3.917000000
H     1.236000000    -6.059000000     4.494000000
O     0.967000000    -0.439000000     6.171000000
H     1.277000000    -0.768000000     5.327000000
H     0.308000000    -1.075000000     6.448000000
O    -3.329000000    -2.895000000     2.655000000
H    -2.435000000    -2.913000000     2.996000000
H    -3.226000000    -3.002000000     1.709000000
O    -0.522000000    -6.456000000     0.505000000
H     0.240000000    -5.888000000     0.620000000
H    -0.332000000    -6.954000000    -0.290000000
O     4.790000000    -3.986000000     1.378000000
H     4.017000000    -3.518000000     1.061000000
H     5.391000000    -3.296000000     1.657000000
O     2.460000000    -7.517000000     4.016000000
H     2.344000000    -8.451000000     3.843000000
H     2.590000000    -7.127000000     3.152000000
O     3.645000000    -4.247000000     5.204000000
H     4.244000000    -4.932000000     4.909000000
H     4.075000000    -3.429000000     4.956000000
O    -2.772000000    -2.718000000    -0.111000000
H    -3.078000000    -3.592000000    -0.355000000
H    -2.799000000    -2.219000000    -0.928000000
O     1.517000000    -0.692000000    -4.993000000
H     0.629000000    -0.890000000    -4.695000000
H     1.399000000    -0.031000000    -5.675000000
O     0.046000000     4.915000000     0.487000000
H    -0.431000000     4.710000000    -0.317000000
H    -0.029000000     4.123000000     1.019000000
O     0.062000000     6.004000000    -3.682000000
H    -0.699000000     6.563000000    -3.522000000
H    -0.170000000     5.504000000    -4.465000000
O    -3.963000000     0.944000000     3.029000000
H    -3.546000000     1.555000000     3.637000000
H    -4.116000000     1.461000000     2.238000000
O    -0.887000000    -2.214000000     4.737000000
H    -1.224000000    -2.558000000     5.564000000
H    -0.120000000    -2.755000000     4.548000000
O    -3.311000000    -1.244000000    -3.017000000
H    -3.248000000    -1.773000000    -3.813000000
H    -4.085000000    -0.698000000    -3.153000000
O     5.229000000     0.986000000    -2.184000000
H     5.028000000     0.381000000    -1.470000000
H     5.220000000     1.851000000    -1.774000000
O    -5.115000000     3.161000000    -1.640000000
H    -5.917000000     3.385000000    -2.112000000
H    -4.558000000     3.934000000    -1.734000000
O    -1.507000000     7.428000000     0.060000000
H    -0.776000000     6.836000000     0.239000000
H    -1.468000000     7.577000000    -0.884000000
O    -3.083000000     6.027000000     1.963000000
H    -3.714000000     6.705000000     2.207000000
H    -2.591000000     6.408000000     1.236000000
O    -1.471000000     4.628000000     3.627000000
H    -0.717000000     4.387000000     3.089000000
H    -2.162000000     4.828000000     2.996000000
