158
-3017.12309
C     0.343000000    -0.482000000     1.308000000
H     0.436000000    -0.781000000     2.349000000
C    -0.199000000     0.785000000     1.009000000
H    -0.515000000     1.350000000     1.882000000
C    -0.381000000     1.131000000    -0.326000000
H    -0.697000000     2.101000000    -0.540000000
C    -0.094000000     0.226000000    -1.319000000
H    -0.222000000     0.597000000    -2.332000000
C     0.382000000    -1.023000000    -1.006000000
H     0.804000000    -1.658000000    -1.781000000
C     0.621000000    -1.403000000     0.332000000
C     1.147000000    -2.800000000     0.837000000
O     0.996000000    -3.123000000     2.000000000
O     1.681000000    -3.566000000     0.121000000
O     2.288000000     2.446000000     0.091000000
H     1.720000000     1.803000000    -0.335000000
H     1.739000000     3.223000000     0.189000000
O     0.009000000     3.562000000     4.265000000
H    -0.653000000     4.253000000     4.305000000
H    -0.442000000     2.780000000     4.584000000
O    -1.851000000    -6.168000000    -0.541000000
H    -0.944000000    -6.008000000    -0.280000000
H    -2.300000000    -6.391000000     0.274000000
O    -0.620000000    -0.150000000    -5.758000000
H    -0.171000000     0.640000000    -6.058000000
H     0.083000000    -0.775000000    -5.585000000
O    -1.837000000     2.017000000     5.726000000
H    -1.675000000     1.293000000     6.332000000
H    -2.789000000     2.035000000     5.623000000
O     2.943000000     0.774000000     5.213000000
H     2.800000000    -0.162000000     5.073000000
H     3.153000000     1.117000000     4.344000000
O    -4.431000000     2.755000000    -5.076000000
H    -4.878000000     2.011000000    -5.481000000
H    -5.009000000     3.500000000    -5.243000000
O     0.785000000    -6.173000000     6.058000000
H     1.148000000    -5.979000000     5.193000000
H     0.914000000    -7.116000000     6.165000000
O    -2.730000000    -0.947000000     1.194000000
H    -2.942000000    -0.635000000     2.073000000
H    -1.978000000    -0.418000000     0.927000000
O     2.617000000    -1.709000000     3.760000000
H     3.216000000    -1.490000000     3.046000000
H     2.101000000    -2.441000000     3.423000000
O     4.063000000    -1.216000000    -3.944000000
H     3.307000000    -1.197000000    -4.532000000
H     3.731000000    -1.617000000    -3.140000000
O    -4.196000000    -3.635000000     3.239000000
H    -3.260000000    -3.802000000     3.128000000
H    -4.248000000    -3.056000000     3.999000000
O     3.060000000     6.028000000    -2.889000000
H     3.593000000     5.243000000    -2.764000000
H     2.332000000     5.738000000    -3.439000000
O     5.214000000    -6.336000000    -1.193000000
H     5.185000000    -5.687000000    -0.489000000
H     6.124000000    -6.634000000    -1.206000000
O    -1.145000000    -3.749000000    -4.133000000
H    -0.945000000    -4.050000000    -5.020000000
H    -0.467000000    -4.146000000    -3.587000000
O    -2.355000000     2.556000000    -3.349000000
H    -3.035000000     2.792000000    -3.979000000
H    -2.550000000     1.648000000    -3.115000000
O    -3.945000000    -0.130000000    -1.192000000
H    -3.406000000    -0.552000000    -1.860000000
H    -3.728000000    -0.591000000    -0.382000000
O     4.205000000    -4.559000000     0.879000000
H     3.430000000    -4.081000000     0.584000000
H     3.860000000    -5.376000000     1.239000000
O     6.684000000    -4.368000000     1.991000000
H     6.657000000    -3.704000000     2.680000000
H     5.833000000    -4.300000000     1.558000000
O    -4.112000000     2.541000000     2.802000000
H    -3.730000000     3.290000000     2.345000000
H    -4.609000000     2.928000000     3.523000000
O    -1.411000000    -4.440000000     6.366000000
H    -1.015000000    -5.311000000     6.357000000
H    -0.726000000    -3.862000000     6.032000000
O     3.670000000     1.752000000    -3.436000000
H     3.659000000     0.855000000    -3.769000000
H     2.888000000     2.157000000    -3.810000000
O    -2.070000000     5.466000000     4.255000000
H    -2.602000000     4.905000000     4.820000000
H    -2.442000000     5.349000000     3.381000000
O    -2.223000000     5.010000000    -1.902000000
H    -3.022000000     5.531000000    -1.980000000
H    -2.400000000     4.222000000    -2.416000000
O     2.412000000     4.443000000     3.077000000
H     2.364000000     5.305000000     2.664000000
H     1.499000000     4.189000000     3.207000000
O     2.491000000    -7.010000000     1.747000000
H     3.056000000    -7.736000000     2.011000000
H     2.203000000    -6.619000000     2.571000000
O    -6.564000000    -0.064000000    -1.685000000
H    -5.624000000    -0.235000000    -1.636000000
H    -6.971000000    -0.917000000    -1.530000000
O    -3.312000000    -0.021000000     3.670000000
H    -3.582000000    -0.182000000     4.574000000
H    -3.400000000     0.926000000     3.560000000
O    -3.071000000     0.379000000    -6.696000000
H    -2.963000000     1.328000000    -6.627000000
H    -2.391000000     0.019000000    -6.127000000
O     0.123000000     6.887000000    -1.662000000
H    -0.402000000     7.541000000    -1.200000000
H    -0.509000000     6.219000000    -1.930000000
O     0.837000000    -6.113000000    -0.012000000
H     1.446000000    -6.525000000     0.601000000
H     0.997000000    -5.174000000     0.086000000
O     1.484000000     3.297000000    -3.848000000
H     1.523000000     4.022000000    -4.473000000
H     0.566000000     3.261000000    -3.580000000
O     3.686000000    -5.371000000    -3.234000000
H     4.056000000    -5.820000000    -3.994000000
H     4.389000000    -5.382000000    -2.584000000
O     3.478000000    -5.434000000     4.245000000
H     2.613000000    -5.042000000     4.129000000
H     4.035000000    -4.708000000     4.524000000
O     0.486000000    -5.179000000     3.503000000
H     0.581000000    -4.437000000     2.907000000
H    -0.454000000    -5.227000000     3.678000000
O     3.102000000    -3.144000000    -2.011000000
H     2.650000000    -3.326000000    -1.187000000
H     3.138000000    -3.990000000    -2.457000000
O    -1.617000000    -3.518000000     2.705000000
H    -0.726000000    -3.173000000     2.634000000
H    -2.052000000    -3.221000000     1.906000000
O     1.770000000    -3.053000000    -5.466000000
H     2.290000000    -3.635000000    -6.020000000
H     1.750000000    -3.489000000    -4.614000000
O    -2.153000000    -1.519000000    -3.321000000
H    -1.692000000    -1.402000000    -4.152000000
H    -1.681000000    -2.228000000    -2.884000000
O     4.412000000     0.931000000    -1.108000000
H     4.467000000     1.143000000    -2.040000000
H     3.828000000     1.597000000    -0.745000000
O    -5.860000000     0.495000000     1.387000000
H    -5.784000000     0.346000000     0.444000000
H    -5.151000000     1.105000000     1.590000000
O    -5.400000000     3.356000000    -1.188000000
H    -5.163000000     3.828000000    -0.390000000
H    -4.761000000     2.645000000    -1.244000000
O     3.947000000     2.409000000     2.268000000
H     3.614000000     3.258000000     2.561000000
H     3.467000000     2.230000000     1.460000000
O     0.978000000    -5.714000000    -2.759000000
H     1.868000000    -5.999000000    -2.966000000
H     0.936000000    -5.735000000    -1.803000000
O     4.621000000    -0.183000000     2.594000000
H     5.299000000    -0.383000000     1.949000000
H     4.219000000     0.626000000     2.277000000
O    -4.327000000     5.445000000     0.687000000
H    -4.483000000     6.341000000     0.390000000
H    -4.773000000     5.391000000     1.532000000
O     0.425000000     4.616000000     0.441000000
H     0.609000000     5.408000000     0.946000000
H     0.543000000     4.882000000    -0.471000000
O    -2.258000000     4.343000000     1.800000000
H    -2.932000000     4.655000000     1.196000000
H    -1.542000000     4.056000000     1.232000000
