158
-3040.23058
C    -0.127000000    -1.028000000     1.077000000
H    -0.274000000    -1.630000000     1.970000000
C    -0.876000000     0.137000000     0.976000000
H    -1.567000000     0.425000000     1.764000000
C    -0.586000000     1.055000000    -0.038000000
H    -1.209000000     1.933000000    -0.076000000
C     0.330000000     0.739000000    -1.032000000
H     0.495000000     1.445000000    -1.841000000
C     0.977000000    -0.462000000    -0.979000000
H     1.575000000    -0.763000000    -1.836000000
C     0.729000000    -1.367000000     0.033000000
C     1.569000000    -2.635000000     0.116000000
O     1.408000000    -3.385000000     1.054000000
O     2.283000000    -2.946000000    -0.804000000
O     3.761000000     2.886000000    -2.891000000
H     4.617000000     3.153000000    -3.226000000
H     3.143000000     3.490000000    -3.303000000
O     1.219000000     6.491000000    -2.278000000
H     1.627000000     7.118000000    -1.681000000
H     0.804000000     5.848000000    -1.702000000
O    -5.230000000     3.562000000     4.139000000
H    -6.088000000     3.976000000     4.228000000
H    -5.079000000     3.525000000     3.195000000
O     6.901000000    -2.114000000    -0.451000000
H     6.058000000    -1.668000000    -0.372000000
H     7.122000000    -2.044000000    -1.380000000
O    -1.120000000     1.335000000    -4.039000000
H    -1.428000000     1.308000000    -4.945000000
H    -0.806000000     0.447000000    -3.866000000
O    -2.245000000    -0.947000000     5.568000000
H    -1.646000000    -1.371000000     4.954000000
H    -2.484000000    -0.124000000     5.141000000
O     0.345000000    -1.007000000    -4.346000000
H     0.395000000    -1.791000000    -3.799000000
H     0.231000000    -1.343000000    -5.235000000
O    -1.325000000     3.873000000    -2.943000000
H    -1.310000000     3.014000000    -3.365000000
H    -1.913000000     4.397000000    -3.487000000
O     4.284000000    -6.524000000     2.959000000
H     3.399000000    -6.340000000     2.643000000
H     4.697000000    -7.010000000     2.246000000
O    -0.986000000    -3.659000000    -3.690000000
H    -0.068000000    -3.551000000    -3.442000000
H    -0.979000000    -3.644000000    -4.647000000
O     0.657000000    -0.240000000     4.792000000
H     1.352000000    -0.899000000     4.812000000
H     0.274000000    -0.270000000     5.669000000
O    -2.699000000    -6.610000000     2.573000000
H    -1.815000000    -6.282000000     2.406000000
H    -2.800000000    -6.552000000     3.523000000
O    -2.538000000    -1.283000000    -1.363000000
H    -1.845000000    -0.785000000    -0.931000000
H    -2.451000000    -2.169000000    -1.012000000
O     4.159000000    -0.873000000    -0.920000000
H     3.434000000    -1.496000000    -0.981000000
H     3.749000000    -0.057000000    -0.632000000
O    -1.383000000    -6.431000000    -0.434000000
H    -2.339000000    -6.435000000    -0.472000000
H    -1.164000000    -7.142000000     0.167000000
O     5.263000000    -5.040000000    -3.054000000
H     4.498000000    -5.221000000    -2.508000000
H     5.080000000    -4.187000000    -3.447000000
O     1.441000000     1.688000000     2.934000000
H     1.257000000     1.109000000     3.674000000
H     1.023000000     1.261000000     2.186000000
O    -4.608000000     0.276000000    -0.127000000
H    -4.417000000     1.149000000    -0.469000000
H    -3.864000000    -0.259000000    -0.404000000
O    -0.397000000    -3.503000000     4.647000000
H     0.344000000    -2.968000000     4.364000000
H    -0.895000000    -3.666000000     3.846000000
O     6.539000000    -5.796000000     0.485000000
H     5.835000000    -5.188000000     0.258000000
H     6.127000000    -6.660000000     0.458000000
O     3.327000000     0.572000000    -6.877000000
H     3.814000000     1.273000000    -6.443000000
H     2.971000000     0.048000000    -6.159000000
O    -1.528000000    -3.786000000    -0.761000000
H    -1.133000000    -4.627000000    -0.531000000
H    -1.637000000    -3.825000000    -1.712000000
O    -3.451000000     3.279000000    -1.006000000
H    -2.495000000     3.311000000    -0.971000000
H    -3.685000000     3.894000000    -1.702000000
O     2.932000000    -8.140000000    -0.312000000
H     3.486000000    -8.484000000    -1.013000000
H     2.265000000    -7.624000000    -0.765000000
O     4.004000000     0.786000000     3.386000000
H     3.274000000     1.231000000     2.956000000
H     3.777000000    -0.142000000     3.344000000
O     4.784000000    -2.318000000    -3.193000000
H     4.981000000    -1.561000000    -3.744000000
H     4.707000000    -1.958000000    -2.310000000
O    -4.367000000     5.952000000    -1.338000000
H    -3.655000000     6.522000000    -1.048000000
H    -4.670000000     6.344000000    -2.157000000
O     0.584000000    -7.515000000    -2.113000000
H    -0.192000000    -7.207000000    -1.646000000
H     0.818000000    -6.790000000    -2.693000000
O    -4.112000000     1.662000000    -4.135000000
H    -4.076000000     0.854000000    -4.647000000
H    -3.252000000     1.720000000    -3.719000000
O    -1.669000000     3.823000000     3.326000000
H    -0.949000000     4.430000000     3.153000000
H    -1.918000000     4.000000000     4.233000000
O     2.097000000    -2.605000000     3.771000000
H     2.665000000    -3.170000000     4.294000000
H     2.060000000    -3.030000000     2.914000000
O     2.000000000    -6.045000000     1.412000000
H     1.190000000    -6.555000000     1.443000000
H     1.711000000    -5.145000000     1.264000000
O     3.498000000     1.855000000    -0.225000000
H     3.677000000     2.022000000    -1.150000000
H     2.824000000     2.493000000     0.007000000
O     4.048000000    -4.226000000     4.391000000
H     4.940000000    -3.983000000     4.143000000
H     4.032000000    -5.181000000     4.324000000
O    -0.971000000    -4.257000000     1.942000000
H    -0.121000000    -3.963000000     1.615000000
H    -1.588000000    -4.031000000     1.245000000
O     3.899000000    -5.168000000    -0.518000000
H     3.351000000    -4.391000000    -0.407000000
H     3.491000000    -5.829000000     0.042000000
O    -4.681000000    -1.609000000     1.753000000
H    -5.604000000    -1.784000000     1.940000000
H    -4.666000000    -0.702000000     1.449000000
O    -3.119000000     6.052000000     2.759000000
H    -3.155000000     5.172000000     3.133000000
H    -3.626000000     5.989000000     1.949000000
O    -4.300000000    -3.948000000     3.997000000
H    -3.633000000    -4.440000000     4.477000000
H    -4.021000000    -3.035000000     4.067000000
O     5.569000000     0.450000000    -4.436000000
H     4.644000000     0.655000000    -4.297000000
H     5.921000000     1.221000000    -4.880000000
O     2.695000000     0.459000000    -4.169000000
H     2.638000000     1.086000000    -3.448000000
H     1.795000000     0.161000000    -4.299000000
O     1.828000000     4.203000000    -0.029000000
H     1.145000000     4.045000000    -0.681000000
H     1.481000000     4.911000000     0.514000000
O    -2.755000000     1.262000000     3.928000000
H    -2.053000000     1.912000000     3.973000000
H    -3.355000000     1.604000000     3.265000000
O     1.707000000    -3.044000000    -3.245000000
H     1.982000000    -3.053000000    -2.329000000
H     2.447000000    -2.659000000    -3.714000000
O    -4.616000000     3.959000000     1.297000000
H    -5.553000000     3.921000000     1.104000000
H    -4.193000000     3.896000000     0.441000000
O    -0.933000000     5.286000000    -0.752000000
H    -0.967000000     4.811000000    -1.582000000
H    -1.259000000     6.161000000    -0.962000000
O    -0.041000000     6.156000000     1.659000000
H     0.134000000     7.038000000     1.331000000
H    -0.643000000     5.777000000     1.018000000
O     1.402000000     4.413000000     3.443000000
H     0.862000000     4.891000000     2.813000000
H     1.456000000     3.526000000     3.089000000
