158
-3026.07826
C    -1.329000000    -0.530000000     0.315000000
H    -2.318000000    -0.884000000     0.596000000
C    -0.739000000     0.511000000     1.017000000
H    -1.247000000     1.001000000     1.844000000
C     0.518000000     0.973000000     0.557000000
H     0.924000000     1.819000000     1.013000000
C     1.180000000     0.297000000    -0.482000000
H     2.152000000     0.691000000    -0.767000000
C     0.556000000    -0.702000000    -1.138000000
H     1.164000000    -1.108000000    -1.942000000
C    -0.659000000    -1.233000000    -0.722000000
C    -1.292000000    -2.385000000    -1.452000000
O    -0.546000000    -3.109000000    -2.158000000
O    -2.422000000    -2.800000000    -1.217000000
O    -0.640000000    -5.500000000    -6.536000000
H    -1.523000000    -5.268000000    -6.248000000
H    -0.379000000    -6.215000000    -5.956000000
O    -1.957000000    -3.171000000    -4.665000000
H    -1.704000000    -3.304000000    -3.752000000
H    -2.283000000    -2.271000000    -4.695000000
O     4.350000000     3.050000000    -1.982000000
H     4.682000000     3.485000000    -1.196000000
H     3.409000000     2.968000000    -1.831000000
O    -6.260000000    -4.898000000     1.622000000
H    -6.339000000    -5.316000000     0.764000000
H    -5.502000000    -4.320000000     1.538000000
O    -1.109000000     4.959000000    -1.630000000
H    -1.665000000     5.729000000    -1.513000000
H    -1.716000000     4.219000000    -1.607000000
O     3.330000000    -1.503000000     3.544000000
H     3.025000000    -1.809000000     4.398000000
H     2.601000000    -1.684000000     2.950000000
O    -2.537000000     0.115000000     5.137000000
H    -2.196000000     1.003000000     5.246000000
H    -3.488000000     0.217000000     5.176000000
O    -1.520000000     5.421000000     2.426000000
H    -1.798000000     4.619000000     1.984000000
H    -2.328000000     5.790000000     2.783000000
O     1.377000000    -2.508000000     5.157000000
H     0.524000000    -2.314000000     4.768000000
H     1.266000000    -3.369000000     5.560000000
O    -2.786000000    -5.335000000    -1.891000000
H    -2.703000000    -5.852000000    -1.090000000
H    -2.561000000    -4.443000000    -1.626000000
O    -5.936000000    -0.132000000    -3.208000000
H    -5.490000000    -0.928000000    -2.919000000
H    -6.435000000     0.154000000    -2.442000000
O     1.429000000     2.185000000    -2.819000000
H     1.043000000     1.876000000    -3.639000000
H     1.303000000     1.460000000    -2.207000000
O     5.359000000    -2.805000000    -0.912000000
H     4.422000000    -2.992000000    -0.872000000
H     5.410000000    -1.850000000    -0.965000000
O    -4.383000000    -2.879000000     0.935000000
H    -4.859000000    -2.068000000     0.755000000
H    -3.774000000    -2.968000000     0.202000000
O    -2.747000000    -6.610000000     0.587000000
H    -2.151000000    -7.195000000     0.120000000
H    -3.604000000    -7.029000000     0.509000000
O     1.187000000    -1.778000000     1.816000000
H     1.044000000    -0.996000000     1.283000000
H     0.329000000    -1.970000000     2.195000000
O    -4.686000000    -2.370000000    -2.462000000
H    -3.842000000    -2.495000000    -2.028000000
H    -4.805000000    -3.162000000    -2.987000000
O     1.053000000    -4.404000000    -3.988000000
H     0.508000000    -4.359000000    -4.774000000
H     0.533000000    -3.970000000    -3.311000000
O     1.730000000     4.290000000    -1.484000000
H     0.787000000     4.432000000    -1.403000000
H     1.808000000     3.419000000    -1.873000000
O     4.762000000     0.509000000    -2.582000000
H     4.486000000     1.416000000    -2.717000000
H     4.288000000     0.013000000    -3.249000000
O     1.623000000     1.947000000     5.807000000
H     2.456000000     1.776000000     5.368000000
H     1.087000000     2.380000000     5.143000000
O     3.636000000     1.338000000     3.899000000
H     4.266000000     1.625000000     3.237000000
H     3.440000000     0.431000000     3.665000000
O    -1.721000000     3.032000000     4.876000000
H    -0.859000000     3.364000000     4.625000000
H    -2.327000000     3.733000000     4.635000000
O     5.964000000    -0.191000000    -0.431000000
H     5.408000000    -0.003000000    -1.187000000
H     6.855000000    -0.182000000    -0.781000000
O     5.687000000     1.889000000     2.158000000
H     5.824000000     1.618000000     1.251000000
H     6.377000000     1.444000000     2.649000000
O     3.856000000    -3.833000000    -4.083000000
H     2.957000000    -4.122000000    -3.927000000
H     4.398000000    -4.485000000    -3.640000000
O    -2.875000000     3.149000000     1.596000000
H    -3.605000000     3.735000000     1.396000000
H    -3.153000000     2.681000000     2.384000000
O    -2.013000000     2.209000000    -1.186000000
H    -2.375000000     2.540000000    -0.364000000
H    -1.434000000     1.494000000    -0.922000000
O    -2.538000000     0.096000000    -3.512000000
H    -3.383000000    -0.337000000    -3.638000000
H    -2.703000000     0.750000000    -2.833000000
O    -1.074000000    -2.241000000     4.175000000
H    -1.396000000    -1.407000000     4.518000000
H    -1.852000000    -2.797000000     4.130000000
O     5.725000000    -1.626000000     2.317000000
H     5.022000000    -1.603000000     2.966000000
H     5.306000000    -1.352000000     1.501000000
O    -2.748000000    -8.077000000    -3.203000000
H    -2.593000000    -7.183000000    -2.899000000
H    -3.320000000    -8.461000000    -2.538000000
O    -6.177000000    -0.810000000     0.998000000
H    -6.851000000    -0.983000000     1.655000000
H    -6.512000000    -0.063000000     0.502000000
O     0.630000000     4.291000000     3.802000000
H    -0.127000000     4.730000000     3.413000000
H     1.123000000     4.994000000     4.225000000
O     5.409000000     4.099000000     0.331000000
H     5.833000000     4.017000000     1.185000000
H     5.114000000     5.009000000     0.297000000
O    -4.849000000    -4.816000000    -3.859000000
H    -5.387000000    -5.286000000    -3.222000000
H    -3.966000000    -4.841000000    -3.490000000
O     3.902000000     4.195000000    -4.643000000
H     3.704000000     3.506000000    -5.277000000
H     3.737000000     3.792000000    -3.791000000
O     0.244000000     0.190000000    -4.351000000
H     0.178000000     0.155000000    -5.306000000
H    -0.662000000     0.129000000    -4.046000000
O     0.239000000     6.118000000     0.589000000
H    -0.126000000     5.681000000    -0.181000000
H    -0.294000000     5.802000000     1.318000000
O     3.361000000    -1.119000000    -4.195000000
H     3.500000000    -2.066000000    -4.212000000
H     2.441000000    -1.008000000    -4.433000000
O     2.581000000    -2.890000000    -0.397000000
H     2.031000000    -3.488000000    -0.903000000
H     1.996000000    -2.536000000     0.274000000
O     0.626000000    -5.173000000    -1.093000000
H    -0.076000000    -5.762000000    -0.816000000
H     0.171000000    -4.412000000    -1.454000000
O    -1.585000000    -4.853000000     2.534000000
H    -2.257000000    -4.197000000     2.717000000
H    -1.924000000    -5.342000000     1.784000000
O     2.411000000    -7.381000000    -0.612000000
H     1.646000000    -6.838000000    -0.423000000
H     2.445000000    -7.422000000    -1.568000000
O    -3.828000000    -3.587000000     3.603000000
H    -4.509000000    -3.203000000     4.155000000
H    -4.099000000    -3.379000000     2.708000000
O    -7.725000000    -3.622000000    -1.224000000
H    -6.965000000    -4.126000000    -1.516000000
H    -7.919000000    -3.036000000    -1.956000000
O     4.330000000     6.637000000     0.202000000
H     3.493000000     6.830000000     0.624000000
H     4.277000000     7.076000000    -0.647000000
O     1.930000000     6.392000000    -3.164000000
H     1.998000000     5.868000000    -2.366000000
H     1.809000000     5.749000000    -3.863000000
