158
-3035.14658
C    -1.202000000     0.612000000     0.738000000
H    -2.197000000     0.849000000     1.107000000
C    -1.005000000     0.556000000    -0.634000000
H    -1.739000000     0.942000000    -1.337000000
C     0.188000000     0.105000000    -1.210000000
H     0.417000000     0.281000000    -2.215000000
C     1.179000000    -0.414000000    -0.400000000
H     2.102000000    -0.857000000    -0.766000000
C     0.985000000    -0.469000000     0.955000000
H     1.779000000    -0.811000000     1.613000000
C    -0.194000000     0.011000000     1.562000000
C    -0.409000000    -0.077000000     3.062000000
O    -1.299000000     0.460000000     3.652000000
O     0.087000000    -0.977000000     3.668000000
O     2.697000000     2.464000000     0.587000000
H     2.981000000     2.381000000    -0.324000000
H     1.965000000     1.853000000     0.666000000
O     0.927000000     3.875000000    -4.029000000
H     0.650000000     4.756000000    -3.778000000
H     1.166000000     3.455000000    -3.203000000
O     0.593000000     0.338000000    -4.885000000
H     1.136000000     0.822000000    -5.508000000
H     1.211000000     0.009000000    -4.233000000
O     6.291000000     2.300000000    -0.026000000
H     7.177000000     2.059000000     0.242000000
H     6.031000000     1.613000000    -0.640000000
O    -3.865000000     3.341000000     1.768000000
H    -4.008000000     4.270000000     1.589000000
H    -4.221000000     2.891000000     1.002000000
O    -1.071000000     4.505000000     2.529000000
H    -1.923000000     4.222000000     2.196000000
H    -0.739000000     3.748000000     3.012000000
O    -1.692000000    -2.256000000    -0.745000000
H    -1.860000000    -2.188000000    -1.685000000
H    -1.219000000    -1.452000000    -0.529000000
O    -3.742000000    -1.532000000     2.482000000
H    -3.150000000    -2.150000000     2.909000000
H    -3.474000000    -0.675000000     2.813000000
O     2.230000000     3.054000000     5.274000000
H     1.289000000     2.981000000     5.434000000
H     2.295000000     3.435000000     4.398000000
O     3.498000000     2.126000000    -1.872000000
H     2.982000000     1.457000000    -2.322000000
H     4.203000000     2.337000000    -2.484000000
O     5.132000000    -2.453000000     1.051000000
H     5.070000000    -3.380000000     1.279000000
H     4.595000000    -2.009000000     1.707000000
O    -5.426000000     1.871000000     0.025000000
H    -5.374000000     2.437000000    -0.745000000
H    -6.280000000     2.068000000     0.410000000
O     1.553000000    -1.202000000     5.788000000
H     2.341000000    -0.702000000     5.576000000
H     0.982000000    -1.082000000     5.029000000
O    -1.483000000    -1.255000000    -5.028000000
H    -1.693000000    -1.451000000    -5.941000000
H    -0.643000000    -0.799000000    -5.069000000
O    -1.961000000     2.868000000     7.096000000
H    -2.728000000     2.470000000     7.508000000
H    -1.753000000     3.619000000     7.651000000
O    -1.730000000    -2.860000000     3.688000000
H    -1.031000000    -2.207000000     3.728000000
H    -2.294000000    -2.652000000     4.433000000
O    -5.252000000    -1.007000000    -3.594000000
H    -4.965000000    -0.599000000    -2.777000000
H    -4.922000000    -0.426000000    -4.280000000
O    -3.441000000    -3.524000000     0.814000000
H    -3.708000000    -2.703000000     1.226000000
H    -2.641000000    -3.304000000     0.337000000
O     6.064000000    -1.474000000     4.270000000
H     5.723000000    -1.098000000     3.458000000
H     6.924000000    -1.069000000     4.379000000
O    -4.423000000    -0.595000000    -0.829000000
H    -3.987000000    -0.764000000     0.006000000
H    -4.782000000     0.288000000    -0.739000000
O    -4.229000000     1.048000000    -5.161000000
H    -3.375000000     1.467000000    -5.270000000
H    -4.779000000     1.445000000    -5.836000000
O     4.412000000    -1.053000000    -6.786000000
H     4.168000000    -1.640000000    -6.070000000
H     3.582000000    -0.685000000    -7.088000000
O     3.338000000    -2.740000000    -4.910000000
H     2.613000000    -3.158000000    -5.374000000
H     3.693000000    -3.430000000    -4.349000000
O     3.586000000     0.763000000     5.110000000
H     4.471000000     1.058000000     5.328000000
H     3.044000000     1.547000000     5.198000000
O    -0.713000000    -4.516000000     1.848000000
H    -1.318000000    -5.258000000     1.835000000
H    -1.019000000    -3.971000000     2.574000000
O     3.261000000    -0.225000000    -3.494000000
H     3.378000000    -1.034000000    -3.993000000
H     3.824000000    -0.333000000    -2.728000000
O    -3.780000000     1.196000000     3.455000000
H    -3.916000000     1.975000000     2.915000000
H    -2.829000000     1.110000000     3.515000000
O    -0.347000000    -4.906000000    -1.909000000
H    -0.441000000    -4.748000000    -0.970000000
H    -1.033000000    -4.374000000    -2.312000000
O     1.784000000     0.739000000     7.978000000
H     1.377000000    -0.011000000     7.543000000
H     1.159000000     1.453000000     7.859000000
O     4.208000000    -0.303000000     2.372000000
H     4.527000000     0.532000000     2.030000000
H     3.809000000    -0.080000000     3.213000000
O    -2.582000000    -0.835000000     5.768000000
H    -2.248000000    -0.485000000     6.594000000
H    -2.076000000    -0.382000000     5.093000000
O    -0.664000000     2.712000000     4.785000000
H    -0.884000000     1.858000000     4.414000000
H    -1.120000000     2.733000000     5.626000000
O     4.883000000    -1.619000000    -1.687000000
H     5.191000000    -1.691000000    -0.784000000
H     4.584000000    -2.501000000    -1.909000000
O     1.629000000    -4.759000000     5.016000000
H     1.681000000    -4.209000000     5.798000000
H     2.031000000    -4.233000000     4.325000000
O    -0.033000000     5.683000000    -2.346000000
H     0.088000000     6.628000000    -2.251000000
H     0.214000000     5.323000000    -1.494000000
O     4.570000000    -4.150000000    -2.936000000
H     5.484000000    -4.399000000    -2.799000000
H     4.067000000    -4.812000000    -2.462000000
O    -5.265000000    -1.369000000     5.937000000
H    -4.385000000    -1.189000000     5.605000000
H    -5.583000000    -2.090000000     5.393000000
O     1.606000000    -3.253000000     2.655000000
H     0.883000000    -3.715000000     2.231000000
H     1.211000000    -2.452000000     2.999000000
O     2.434000000    -3.159000000     7.371000000
H     1.774000000    -3.278000000     8.055000000
H     2.107000000    -2.426000000     6.849000000
O     1.279000000    -4.687000000    -4.757000000
H     0.933000000    -4.711000000    -3.865000000
H     1.861000000    -5.446000000    -4.808000000
O     1.694000000     2.346000000    -6.441000000
H     2.555000000     2.735000000    -6.596000000
H     1.300000000     2.897000000    -5.766000000
O    -5.026000000     3.962000000    -3.370000000
H    -4.484000000     4.620000000    -3.807000000
H    -4.592000000     3.130000000    -3.559000000
O     1.745000000    -0.294000000    -7.801000000
H     1.026000000     0.013000000    -7.249000000
H     1.512000000    -0.002000000    -8.682000000
O    -2.585000000    -3.483000000    -3.176000000
H    -2.391000000    -2.824000000    -3.844000000
H    -3.499000000    -3.719000000    -3.331000000
O     0.112000000     4.979000000     0.128000000
H    -0.156000000     4.767000000     1.023000000
H     1.030000000     4.712000000     0.083000000
O    -0.720000000     2.012000000    -7.900000000
H    -1.277000000     2.149000000    -7.134000000
H     0.072000000     2.515000000    -7.712000000
O    -6.696000000    -0.560000000     3.254000000
H    -5.750000000    -0.411000000     3.273000000
H    -7.069000000     0.295000000     3.039000000
O    -1.725000000     1.857000000    -5.346000000
H    -1.235000000     2.276000000    -4.639000000
H    -1.335000000     0.986000000    -5.425000000
