158
-3054.39104
C    -0.538000000    -1.359000000     0.062000000
H    -1.063000000    -2.307000000     0.145000000
C    -0.549000000    -0.593000000    -1.062000000
H    -1.158000000    -0.908000000    -1.905000000
C     0.021000000     0.671000000    -1.036000000
H    -0.117000000     1.272000000    -1.925000000
C     0.566000000     1.219000000     0.130000000
H     0.881000000     2.259000000     0.135000000
C     0.596000000     0.420000000     1.282000000
H     1.175000000     0.641000000     2.175000000
C     0.020000000    -0.850000000     1.308000000
C     0.079000000    -1.715000000     2.540000000
O    -0.744000000    -2.560000000     2.748000000
O     1.020000000    -1.501000000     3.314000000
O    -0.391000000     4.284000000     1.028000000
H     0.241000000     3.823000000     1.580000000
H    -1.207000000     3.795000000     1.139000000
O    -2.964000000     3.165000000    -0.311000000
H    -3.134000000     2.428000000     0.276000000
H    -2.875000000     2.767000000    -1.177000000
O     0.157000000    -1.127000000    -7.856000000
H     1.093000000    -1.206000000    -7.668000000
H    -0.163000000    -0.495000000    -7.213000000
O     2.573000000     1.442000000    -4.713000000
H     2.771000000     1.113000000    -3.836000000
H     2.036000000     2.220000000    -4.562000000
O    -3.464000000     0.106000000    -2.802000000
H    -3.218000000     1.008000000    -3.006000000
H    -3.213000000    -0.009000000    -1.885000000
O    -3.131000000     1.305000000     1.424000000
H    -3.081000000     0.349000000     1.411000000
H    -2.302000000     1.583000000     1.813000000
O     1.313000000     5.203000000    -5.769000000
H     0.716000000     5.792000000    -5.307000000
H     0.955000000     4.329000000    -5.612000000
O    -1.817000000    -4.406000000    -1.334000000
H    -1.733000000    -5.092000000    -1.997000000
H    -1.682000000    -4.859000000    -0.502000000
O     0.219000000     1.963000000     5.514000000
H    -0.247000000     2.215000000     6.311000000
H     0.180000000     1.007000000     5.505000000
O    -5.712000000    -1.149000000    -3.329000000
H    -6.083000000    -1.377000000    -2.477000000
H    -4.826000000    -0.844000000    -3.131000000
O     5.227000000     2.689000000    -2.572000000
H     4.745000000     2.941000000    -1.784000000
H     4.903000000     3.281000000    -3.250000000
O    -2.884000000    -1.294000000    -5.516000000
H    -3.171000000    -1.125000000    -4.618000000
H    -3.252000000    -0.571000000    -6.025000000
O     1.751000000     3.473000000     2.614000000
H     1.413000000     3.647000000     3.492000000
H     2.316000000     2.708000000     2.723000000
O     3.985000000     1.990000000     3.559000000
H     4.026000000     1.494000000     4.376000000
H     3.972000000     2.907000000     3.835000000
O     3.005000000    -4.697000000     0.959000000
H     2.276000000    -4.645000000     1.577000000
H     3.755000000    -4.956000000     1.496000000
O     1.060000000    -1.322000000    -3.444000000
H     1.163000000    -0.803000000    -2.646000000
H     1.309000000    -2.210000000    -3.186000000
O    -3.591000000    -0.952000000     3.481000000
H    -3.763000000    -0.298000000     4.158000000
H    -2.911000000    -1.512000000     3.856000000
O     5.031000000    -1.065000000    -3.182000000
H     5.535000000    -0.546000000    -3.809000000
H     4.178000000    -0.631000000    -3.143000000
O    -2.369000000    -4.719000000     1.952000000
H    -1.879000000    -4.006000000     2.361000000
H    -2.920000000    -4.287000000     1.298000000
O    -1.016000000    -7.066000000     2.610000000
H    -1.717000000    -6.692000000     2.076000000
H    -1.036000000    -8.002000000     2.409000000
O     4.570000000     0.670000000     0.900000000
H     4.112000000    -0.021000000     1.379000000
H     5.220000000     1.000000000     1.519000000
O    -0.337000000     0.134000000    -5.536000000
H    -1.018000000    -0.455000000    -5.212000000
H     0.307000000     0.167000000    -4.829000000
O    -1.404000000     6.728000000     1.617000000
H    -2.120000000     6.511000000     1.019000000
H    -0.835000000     5.959000000     1.598000000
O    -4.608000000    -3.592000000     0.613000000
H    -5.287000000    -4.156000000     0.243000000
H    -4.927000000    -3.377000000     1.490000000
O     2.828000000    -1.899000000    -0.606000000
H     1.924000000    -1.772000000    -0.320000000
H     3.038000000    -2.797000000    -0.349000000
O     2.030000000     0.029000000     7.828000000
H     1.504000000    -0.197000000     7.061000000
H     1.704000000     0.887000000     8.098000000
O     0.720000000    -4.912000000     2.772000000
H    -0.082000000    -5.400000000     2.586000000
H     0.435000000    -4.000000000     2.843000000
O    -4.559000000    -4.272000000    -3.393000000
H    -4.943000000    -3.523000000    -3.850000000
H    -3.670000000    -3.990000000    -3.177000000
O     4.472000000    -2.914000000     5.181000000
H     5.123000000    -2.770000000     5.868000000
H     3.711000000    -3.268000000     5.643000000
O    -2.901000000    -2.306000000     7.310000000
H    -2.090000000    -1.884000000     7.594000000
H    -2.674000000    -2.724000000     6.479000000
O    -1.561000000    -3.331000000     5.131000000
H    -1.468000000    -3.137000000     4.198000000
H    -1.051000000    -4.129000000     5.262000000
O     0.675000000    -0.910000000     5.721000000
H     0.879000000    -1.098000000     4.804000000
H     0.062000000    -1.599000000     5.976000000
O     5.402000000    -2.842000000     1.229000000
H     5.136000000    -3.649000000     1.670000000
H     4.915000000    -2.151000000     1.677000000
O    -1.813000000     4.461000000    -5.066000000
H    -1.142000000     3.897000000    -5.452000000
H    -2.334000000     4.757000000    -5.812000000
O     3.545000000    -1.338000000     2.768000000
H     3.953000000    -1.615000000     3.589000000
H     2.609000000    -1.305000000     2.964000000
O     3.571000000     4.911000000     1.130000000
H     3.527000000     5.851000000     0.956000000
H     2.881000000     4.753000000     1.774000000
O    -2.924000000     6.002000000    -0.593000000
H    -2.951000000     5.052000000    -0.475000000
H    -3.029000000     6.129000000    -1.536000000
O    -3.968000000    -1.097000000    -0.192000000
H    -3.421000000    -1.804000000    -0.534000000
H    -4.788000000    -1.525000000     0.053000000
O     3.067000000     0.428000000    -2.125000000
H     3.390000000    -0.352000000    -1.675000000
H     3.023000000     1.097000000    -1.442000000
O     3.374000000     3.123000000    -0.683000000
H     3.635000000     2.519000000     0.013000000
H     3.340000000     3.979000000    -0.256000000
O     0.072000000     2.689000000    -6.112000000
H     0.627000000     2.616000000    -6.888000000
H    -0.119000000     1.783000000    -5.868000000
O    -3.256000000     6.353000000    -3.493000000
H    -2.780000000     5.713000000    -4.021000000
H    -4.094000000     6.459000000    -3.944000000
O     2.160000000     3.687000000    -2.783000000
H     2.573000000     4.528000000    -2.979000000
H     2.573000000     3.402000000    -1.968000000
O    -0.296000000     4.231000000    -1.803000000
H     0.594000000     3.986000000    -2.058000000
H    -0.216000000     4.502000000    -0.888000000
O    -5.057000000     3.724000000    -2.648000000
H    -4.212000000     3.289000000    -2.760000000
H    -5.668000000     3.014000000    -2.452000000
O    -3.964000000    -5.535000000     4.553000000
H    -3.444000000    -5.025000000     3.931000000
H    -4.823000000    -5.615000000     4.138000000
O    -2.322000000     2.671000000    -2.780000000
H    -2.412000000     3.100000000    -3.631000000
H    -1.548000000     3.075000000    -2.389000000
O     0.235000000     6.668000000    -3.071000000
H    -0.057000000     5.807000000    -2.772000000
H    -0.458000000     6.964000000    -3.661000000
