158
-3018.84862
C    -1.419000000     0.440000000     0.345000000
H    -2.427000000     0.843000000     0.402000000
C    -0.504000000     1.199000000    -0.419000000
H    -0.773000000     2.159000000    -0.851000000
C     0.805000000     0.671000000    -0.651000000
H     1.538000000     1.273000000    -1.157000000
C     1.159000000    -0.586000000    -0.139000000
H     2.156000000    -0.970000000    -0.340000000
C     0.276000000    -1.336000000     0.625000000
H     0.617000000    -2.308000000     0.974000000
C    -1.042000000    -0.830000000     0.884000000
C    -2.030000000    -1.586000000     1.797000000
O    -3.230000000    -1.237000000     1.805000000
O    -1.572000000    -2.477000000     2.523000000
O     3.803000000     3.692000000     0.518000000
H     3.529000000     4.571000000     0.257000000
H     2.994000000     3.261000000     0.793000000
O     1.168000000     3.135000000     1.143000000
H     1.117000000     3.628000000     0.325000000
H     0.869000000     2.256000000     0.913000000
O    -1.379000000     4.579000000    -0.139000000
H    -1.561000000     4.236000000     0.736000000
H    -1.550000000     5.519000000    -0.067000000
O     0.638000000     1.362000000    -3.932000000
H     0.704000000     2.283000000    -3.680000000
H     1.277000000     0.915000000    -3.377000000
O     6.569000000    -3.155000000    -0.530000000
H     5.817000000    -2.677000000    -0.181000000
H     6.676000000    -3.899000000     0.063000000
O    -4.774000000     2.133000000     1.296000000
H    -4.909000000     2.459000000     0.406000000
H    -5.558000000     2.406000000     1.773000000
O    -2.924000000     2.161000000     4.062000000
H    -3.326000000     1.789000000     3.277000000
H    -2.621000000     1.401000000     4.559000000
O     2.920000000     6.288000000    -1.295000000
H     3.827000000     6.589000000    -1.358000000
H     2.703000000     5.997000000    -2.180000000
O    -1.521000000    -4.657000000    -1.089000000
H    -2.126000000    -5.075000000    -1.702000000
H    -1.324000000    -3.809000000    -1.487000000
O    -4.638000000    -0.351000000    -0.128000000
H    -4.043000000    -0.854000000     0.429000000
H    -4.456000000     0.563000000     0.092000000
O    -0.027000000     1.711000000     5.287000000
H    -0.582000000     1.257000000     4.653000000
H    -0.635000000     2.241000000     5.803000000
O     6.167000000     2.388000000    -4.115000000
H     7.049000000     2.042000000    -3.980000000
H     6.305000000     3.245000000    -4.519000000
O     3.575000000     1.419000000    -3.393000000
H     3.715000000     1.306000000    -4.333000000
H     4.393000000     1.798000000    -3.072000000
O     5.679000000     5.093000000    -2.715000000
H     4.940000000     5.184000000    -3.315000000
H     5.836000000     5.981000000    -2.391000000
O     5.970000000     0.021000000     1.500000000
H     5.447000000    -0.657000000     1.071000000
H     5.462000000     0.260000000     2.276000000
O    -7.459000000    -2.707000000     2.943000000
H    -6.653000000    -3.136000000     2.653000000
H    -8.158000000    -3.177000000     2.488000000
O     5.967000000    -1.666000000    -3.755000000
H     6.539000000    -1.172000000    -4.342000000
H     5.986000000    -1.176000000    -2.933000000
O    -5.867000000     3.533000000    -0.850000000
H    -5.375000000     4.195000000    -0.364000000
H    -6.346000000     4.030000000    -1.514000000
O    -2.021000000    -5.060000000     2.307000000
H    -1.774000000    -4.148000000     2.153000000
H    -1.234000000    -5.561000000     2.092000000
O    -4.155000000    -5.834000000     0.231000000
H    -3.867000000    -5.827000000    -0.682000000
H    -3.522000000    -5.280000000     0.687000000
O    -2.557000000     3.987000000    -5.051000000
H    -3.230000000     3.359000000    -4.790000000
H    -1.929000000     3.980000000    -4.328000000
O    -1.136000000    -2.274000000    -2.205000000
H    -1.408000000    -1.526000000    -2.738000000
H    -0.355000000    -1.968000000    -1.744000000
O     3.694000000     5.290000000    -4.354000000
H     3.075000000     5.855000000    -4.818000000
H     4.310000000     5.006000000    -5.028000000
O    -7.438000000     1.293000000     1.827000000
H    -6.723000000     0.662000000     1.742000000
H    -8.233000000     0.761000000     1.781000000
O     1.518000000    -4.133000000    -3.285000000
H     1.448000000    -4.034000000    -4.235000000
H     0.850000000    -4.781000000    -3.062000000
O     0.794000000    -4.706000000     0.497000000
H     0.955000000    -5.649000000     0.528000000
H     0.007000000    -4.614000000    -0.040000000
O     3.620000000    -1.890000000    -5.481000000
H     3.447000000    -0.991000000    -5.762000000
H     4.268000000    -1.801000000    -4.781000000
O    -5.469000000    -0.780000000     3.127000000
H    -5.982000000    -1.510000000     2.779000000
H    -4.613000000    -0.867000000     2.707000000
O     4.482000000     1.753000000     3.207000000
H     3.709000000     2.318000000     3.210000000
H     4.767000000     1.731000000     4.120000000
O    -3.030000000    -2.374000000     4.765000000
H    -3.963000000    -2.569000000     4.686000000
H    -2.700000000    -2.413000000     3.867000000
O    -2.598000000     0.034000000     5.998000000
H    -2.577000000    -0.783000000     5.500000000
H    -3.352000000    -0.058000000     6.580000000
O     4.427000000    -2.219000000     0.658000000
H     4.054000000    -2.153000000     1.537000000
H     3.777000000    -2.715000000     0.160000000
O    -6.596000000     0.341000000     5.148000000
H    -6.132000000     0.059000000     4.360000000
H    -5.945000000     0.276000000     5.846000000
O     3.308000000    -2.710000000     3.171000000
H     2.491000000    -3.210000000     3.185000000
H     3.797000000    -3.031000000     3.929000000
O     1.753000000     3.717000000    -3.091000000
H     2.379000000     4.369000000    -3.406000000
H     2.245000000     2.896000000    -3.085000000
O     2.829000000    -3.581000000    -1.031000000
H     2.413000000    -3.463000000    -1.885000000
H     2.164000000    -4.019000000    -0.499000000
O     7.290000000     0.373000000    -1.857000000
H     6.727000000     1.081000000    -1.543000000
H     8.038000000     0.821000000    -2.253000000
O     0.911000000    -4.047000000     3.317000000
H     0.744000000    -4.214000000     2.389000000
H     0.404000000    -3.260000000     3.514000000
O    -1.318000000    -2.729000000     7.141000000
H    -1.710000000    -2.475000000     6.306000000
H    -1.192000000    -1.902000000     7.608000000
O     0.798000000     0.202000000    -6.335000000
H     0.680000000     0.536000000    -5.446000000
H     0.882000000     0.986000000    -6.877000000
O    -3.147000000     1.948000000    -2.530000000
H    -2.505000000     2.642000000    -2.686000000
H    -2.701000000     1.145000000    -2.799000000
O    -5.780000000     1.330000000    -2.533000000
H    -4.832000000     1.455000000    -2.561000000
H    -6.074000000     1.882000000    -1.809000000
O    -6.652000000    -2.320000000     0.086000000
H    -7.412000000    -1.988000000    -0.392000000
H    -6.015000000    -1.606000000     0.049000000
O    -1.138000000     3.885000000    -2.703000000
H    -1.178000000     3.918000000    -1.747000000
H    -0.212000000     4.009000000    -2.909000000
O    -2.481000000     3.972000000     2.245000000
H    -3.305000000     3.764000000     1.805000000
H    -2.510000000     3.467000000     3.059000000
O    -4.372000000    -4.826000000     4.141000000
H    -3.559000000    -5.267000000     3.896000000
H    -4.536000000    -4.212000000     3.425000000
O    -4.942000000    -3.239000000     2.056000000
H    -5.439000000    -3.106000000     1.249000000
H    -4.163000000    -2.693000000     1.950000000
O    -1.703000000    -0.110000000    -3.890000000
H    -0.915000000     0.424000000    -3.993000000
H    -1.800000000    -0.558000000    -4.730000000
