158
-3050.34790
C    -1.096000000    -0.541000000     0.942000000
H    -1.846000000    -1.037000000     1.553000000
C    -1.290000000     0.082000000    -0.317000000
H    -2.294000000     0.097000000    -0.733000000
C    -0.242000000     0.575000000    -1.104000000
H    -0.448000000     1.038000000    -2.125000000
C     1.050000000     0.530000000    -0.530000000
H     1.924000000     0.967000000    -1.006000000
C     1.229000000    -0.063000000     0.679000000
H     2.260000000    -0.144000000     1.013000000
C     0.264000000    -0.720000000     1.441000000
C     0.646000000    -1.499000000     2.669000000
O    -0.207000000    -2.039000000     3.346000000
O     1.842000000    -1.491000000     2.980000000
O    -5.937000000     0.101000000    -0.533000000
H    -5.233000000    -0.376000000    -0.972000000
H    -6.351000000     0.611000000    -1.229000000
O     2.866000000     1.804000000    -6.403000000
H     2.577000000     2.154000000    -7.245000000
H     2.110000000     1.913000000    -5.826000000
O     2.728000000    -4.288000000     2.854000000
H     2.288000000    -3.471000000     2.616000000
H     2.450000000    -4.456000000     3.754000000
O    -5.552000000    -0.344000000    -4.515000000
H    -4.797000000     0.243000000    -4.463000000
H    -5.186000000    -1.218000000    -4.382000000
O    -4.520000000    -0.370000000     4.281000000
H    -5.094000000     0.135000000     4.858000000
H    -3.638000000    -0.201000000     4.613000000
O    -2.815000000     1.476000000    -6.274000000
H    -2.814000000     1.913000000    -7.126000000
H    -2.080000000     0.865000000    -6.317000000
O     0.637000000     1.896000000    -4.291000000
H    -0.155000000     2.201000000    -4.733000000
H     0.851000000     2.596000000    -3.674000000
O    -1.413000000     2.549000000     1.656000000
H    -2.271000000     2.835000000     1.341000000
H    -1.206000000     1.782000000     1.123000000
O    -3.556000000    -4.222000000    -0.074000000
H    -2.940000000    -3.955000000     0.608000000
H    -4.013000000    -4.976000000     0.298000000
O    -2.865000000    -2.434000000     6.511000000
H    -3.504000000    -2.906000000     5.977000000
H    -2.212000000    -2.124000000     5.884000000
O     0.870000000     3.625000000     2.800000000
H     1.122000000     2.923000000     3.400000000
H     0.072000000     3.305000000     2.378000000
O    -1.530000000     4.004000000    -1.381000000
H    -2.219000000     4.088000000    -2.041000000
H    -1.358000000     4.902000000    -1.099000000
O     5.149000000     0.657000000    -2.111000000
H     5.123000000     0.831000000    -3.052000000
H     6.013000000     0.964000000    -1.834000000
O     5.322000000    -4.447000000     1.839000000
H     4.585000000    -4.668000000     2.408000000
H     4.930000000    -3.946000000     1.123000000
O     1.236000000    -6.467000000     1.348000000
H     0.777000000    -5.632000000     1.261000000
H     1.750000000    -6.376000000     2.151000000
O     0.195000000    -2.431000000    -2.427000000
H    -0.726000000    -2.181000000    -2.498000000
H     0.654000000    -1.818000000    -3.001000000
O    -4.607000000    -1.981000000    -1.730000000
H    -4.356000000    -2.702000000    -1.153000000
H    -4.808000000    -2.402000000    -2.566000000
O    -1.905000000     3.388000000    -4.491000000
H    -2.221000000     2.803000000    -5.179000000
H    -2.081000000     4.268000000    -4.824000000
O    -6.188000000     0.669000000     2.166000000
H    -5.309000000     0.457000000     2.480000000
H    -6.110000000     0.661000000     1.212000000
O     2.325000000     6.049000000    -3.239000000
H     2.625000000     5.675000000    -4.068000000
H     1.750000000     5.380000000    -2.869000000
O     0.298000000    -6.566000000     4.309000000
H    -0.452000000    -6.409000000     3.735000000
H     0.514000000    -5.704000000     4.662000000
O     3.774000000    -2.298000000     0.503000000
H     4.010000000    -2.151000000    -0.413000000
H     2.996000000    -2.854000000     0.464000000
O     4.536000000    -3.618000000     6.140000000
H     3.715000000    -3.273000000     6.492000000
H     4.672000000    -3.130000000     5.328000000
O    -3.870000000    -3.962000000     4.268000000
H    -4.635000000    -3.662000000     3.778000000
H    -4.135000000    -4.807000000     4.633000000
O     2.777000000     3.803000000     0.835000000
H     3.439000000     3.333000000     1.343000000
H     1.986000000     3.755000000     1.372000000
O     4.523000000     5.059000000    -0.809000000
H     4.511000000     4.622000000    -1.661000000
H     3.794000000     4.665000000    -0.329000000
O     4.329000000    -1.954000000     3.888000000
H     3.411000000    -1.843000000     3.644000000
H     4.739000000    -2.337000000     3.113000000
O    -1.910000000    -6.332000000     1.826000000
H    -2.823000000    -6.619000000     1.840000000
H    -1.956000000    -5.380000000     1.911000000
O    -1.680000000    -0.356000000     4.944000000
H    -0.969000000     0.264000000     5.107000000
H    -1.338000000    -0.940000000     4.267000000
O     4.018000000    -1.743000000    -1.988000000
H     4.578000000    -0.970000000    -1.914000000
H     3.166000000    -1.396000000    -2.254000000
O    -3.514000000     1.216000000    -3.652000000
H    -3.304000000     1.501000000    -4.542000000
H    -3.964000000     1.965000000    -3.261000000
O     4.368000000     2.175000000     2.748000000
H     4.565000000     1.535000000     2.064000000
H     3.528000000     1.890000000     3.108000000
O    -1.998000000    -3.504000000     2.182000000
H    -1.353000000    -2.948000000     2.619000000
H    -2.715000000    -3.579000000     2.811000000
O     1.974000000     1.161000000     3.865000000
H     1.975000000     0.216000000     3.713000000
H     1.288000000     1.298000000     4.518000000
O    -1.091000000    -0.913000000    -5.674000000
H    -1.469000000    -1.323000000    -4.897000000
H    -1.536000000    -1.335000000    -6.409000000
O     4.869000000     0.309000000     0.683000000
H     4.569000000    -0.599000000     0.729000000
H     5.153000000     0.422000000    -0.224000000
O     0.909000000    -3.940000000     4.911000000
H     0.421000000    -3.190000000     4.569000000
H     1.534000000    -3.558000000     5.527000000
O     2.280000000    -2.973000000     7.196000000
H     2.183000000    -3.290000000     8.094000000
H     2.092000000    -2.036000000     7.250000000
O     6.266000000    -0.881000000     5.486000000
H     5.967000000     0.009000000     5.674000000
H     5.848000000    -1.103000000     4.654000000
O     1.386000000    -3.630000000    -0.350000000
H     0.945000000    -3.145000000    -1.047000000
H     1.555000000    -4.493000000    -0.728000000
O     2.063000000    -0.664000000    -3.706000000
H     1.549000000     0.138000000    -3.611000000
H     2.473000000    -0.584000000    -4.568000000
O    -3.639000000     3.246000000     0.208000000
H    -4.154000000     3.819000000    -0.359000000
H    -2.994000000     2.847000000    -0.377000000
O    -5.084000000     3.150000000    -2.625000000
H    -5.053000000     4.014000000    -2.215000000
H    -5.962000000     2.823000000    -2.431000000
O     1.095000000     3.524000000    -2.053000000
H     0.139000000     3.515000000    -2.098000000
H     1.291000000     3.482000000    -1.117000000
O    -4.084000000    -2.659000000    -4.402000000
H    -3.213000000    -2.292000000    -4.244000000
H    -3.928000000    -3.409000000    -4.975000000
O    -5.780000000    -2.466000000     2.962000000
H    -6.636000000    -2.222000000     2.611000000
H    -5.416000000    -1.647000000     3.297000000
O     0.973000000    -1.195000000    -7.437000000
H     0.311000000    -1.177000000    -6.746000000
H     1.735000000    -0.763000000    -7.049000000
O    -2.200000000    -1.069000000    -3.181000000
H    -2.374000000    -0.217000000    -3.582000000
H    -2.918000000    -1.194000000    -2.561000000
