158
-3024.29190
C    -0.875000000    -0.760000000     1.003000000
H    -1.611000000    -1.398000000     1.485000000
C    -1.316000000    -0.113000000    -0.131000000
H    -2.382000000    -0.107000000    -0.344000000
C    -0.417000000     0.622000000    -0.981000000
H    -0.803000000     1.105000000    -1.886000000
C     0.951000000     0.491000000    -0.714000000
H     1.672000000     0.853000000    -1.442000000
C     1.386000000    -0.132000000     0.456000000
H     2.457000000    -0.045000000     0.620000000
C     0.475000000    -0.776000000     1.296000000
C     1.006000000    -1.450000000     2.533000000
O     0.220000000    -1.898000000     3.356000000
O     2.167000000    -1.419000000     2.753000000
O     3.886000000    -4.860000000     2.184000000
H     4.195000000    -4.005000000     2.482000000
H     4.561000000    -5.161000000     1.576000000
O    -4.309000000    -1.852000000     2.678000000
H    -5.015000000    -1.948000000     3.318000000
H    -3.506000000    -1.929000000     3.194000000
O    -1.542000000    -0.209000000    -7.047000000
H    -2.110000000     0.545000000    -6.893000000
H    -2.105000000    -0.848000000    -7.483000000
O     4.004000000     3.418000000    -4.974000000
H     3.456000000     2.672000000    -5.221000000
H     4.516000000     3.609000000    -5.760000000
O    -2.237000000     2.984000000     0.113000000
H    -2.169000000     3.467000000    -0.711000000
H    -1.682000000     2.215000000    -0.015000000
O     4.473000000     4.310000000    -2.164000000
H     3.685000000     4.815000000    -1.963000000
H     4.352000000     4.028000000    -3.070000000
O    -3.454000000    -4.282000000    -0.739000000
H    -2.665000000    -4.529000000    -0.257000000
H    -3.173000000    -4.240000000    -1.653000000
O    -2.367000000    -5.259000000     4.962000000
H    -3.180000000    -5.732000000     4.787000000
H    -2.291000000    -4.636000000     4.239000000
O    -0.268000000     2.383000000     3.527000000
H    -0.010000000     2.487000000     4.442000000
H    -0.149000000     1.450000000     3.349000000
O     0.127000000     5.175000000    -3.933000000
H    -0.358000000     5.921000000    -4.285000000
H     0.573000000     4.799000000    -4.692000000
O     5.718000000     2.003000000    -1.491000000
H     5.041000000     2.644000000    -1.707000000
H     6.144000000     2.358000000    -0.710000000
O    -2.579000000    -4.053000000    -3.185000000
H    -2.302000000    -4.458000000    -4.007000000
H    -2.632000000    -3.118000000    -3.384000000
O    -0.322000000     0.196000000     5.160000000
H    -0.107000000    -0.625000000     4.718000000
H    -1.128000000     0.006000000     5.641000000
O     1.123000000    -5.059000000     0.817000000
H     1.563000000    -4.360000000     0.335000000
H     1.531000000    -5.046000000     1.683000000
O    -0.100000000     0.241000000    -4.523000000
H     0.520000000     0.964000000    -4.621000000
H    -0.068000000    -0.217000000    -5.363000000
O    -4.522000000    -1.890000000    -0.126000000
H    -4.235000000    -2.705000000    -0.537000000
H    -4.498000000    -2.074000000     0.813000000
O    -3.512000000     4.998000000    -4.472000000
H    -4.409000000     5.330000000    -4.447000000
H    -3.247000000     5.094000000    -5.387000000
O     0.702000000    -6.203000000     3.588000000
H    -0.176000000    -5.866000000     3.407000000
H     1.110000000    -5.528000000     4.130000000
O     4.062000000    -3.094000000    -0.639000000
H     4.181000000    -2.277000000    -1.124000000
H     4.259000000    -3.781000000    -1.276000000
O    -1.614000000     6.166000000     0.575000000
H    -1.229000000     5.503000000     1.148000000
H    -2.533000000     5.910000000     0.495000000
O     4.000000000    -3.710000000     6.303000000
H     3.590000000    -2.894000000     6.587000000
H     4.712000000    -3.433000000     5.726000000
O     2.092000000     3.281000000     0.370000000
H     2.906000000     2.831000000     0.598000000
H     1.426000000     2.593000000     0.386000000
O     5.629000000     4.357000000     0.298000000
H     5.126000000     4.456000000    -0.510000000
H     5.050000000     3.869000000     0.883000000
O     4.714000000    -2.346000000     3.402000000
H     3.795000000    -2.148000000     3.218000000
H     4.983000000    -1.673000000     4.027000000
O    -3.633000000     4.384000000     2.387000000
H    -3.124000000     4.023000000     1.661000000
H    -3.051000000     4.316000000     3.144000000
O     1.069000000     0.572000000     7.382000000
H     1.631000000     1.337000000     7.262000000
H     0.465000000     0.599000000     6.640000000
O    -2.299000000    -2.172000000     4.324000000
H    -2.409000000    -1.943000000     5.247000000
H    -1.359000000    -2.082000000     4.165000000
O     4.670000000    -0.614000000    -2.053000000
H     5.040000000     0.262000000    -1.945000000
H     4.875000000    -0.852000000    -2.957000000
O    -5.033000000    -0.128000000    -4.427000000
H    -5.859000000     0.126000000    -4.014000000
H    -4.546000000     0.691000000    -4.512000000
O     4.520000000     2.207000000     1.659000000
H     4.908000000     1.347000000     1.500000000
H     4.294000000     2.200000000     2.589000000
O    -1.117000000    -4.290000000     2.358000000
H    -0.322000000    -4.498000000     1.867000000
H    -1.003000000    -3.376000000     2.622000000
O     2.518000000     0.632000000     4.565000000
H     2.599000000     0.272000000     3.682000000
H     1.575000000     0.659000000     4.727000000
O     5.241000000    -0.441000000     0.744000000
H     4.758000000    -1.067000000     1.283000000
H     4.803000000    -0.467000000    -0.106000000
O    -5.642000000     2.471000000     2.912000000
H    -4.982000000     3.146000000     2.748000000
H    -5.349000000     1.720000000     2.396000000
O     2.046000000    -1.282000000    -3.116000000
H     1.534000000    -0.566000000    -3.491000000
H     2.833000000    -0.860000000    -2.771000000
O     1.449000000    -3.813000000     4.749000000
H     0.912000000    -3.107000000     4.390000000
H     2.349000000    -3.497000000     4.663000000
O     2.863000000    -1.527000000     7.090000000
H     2.591000000    -2.053000000     7.842000000
H     2.265000000    -0.779000000     7.092000000
O     1.049000000    -3.010000000    -0.865000000
H     1.999000000    -3.014000000    -0.979000000
H     0.740000000    -2.321000000    -1.453000000
O    -3.179000000     2.037000000    -6.532000000
H    -3.754000000     1.948000000    -5.772000000
H    -2.805000000     2.914000000    -6.448000000
O    -4.913000000     0.437000000     1.416000000
H    -4.728000000    -0.280000000     2.023000000
H    -4.598000000     0.121000000     0.569000000
O     2.377000000     1.291000000    -5.611000000
H     2.383000000     1.063000000    -6.541000000
H     3.249000000     1.052000000    -5.300000000
O     0.283000000    -2.548000000    -5.423000000
H     0.728000000    -2.298000000    -4.613000000
H    -0.647000000    -2.421000000    -5.235000000
O    -1.833000000     4.171000000    -2.369000000
H    -1.012000000     4.367000000    -2.821000000
H    -2.498000000     4.652000000    -2.860000000
O     5.272000000    -0.235000000     5.366000000
H     4.382000000     0.093000000     5.240000000
H     5.816000000     0.552000000     5.389000000
O    -4.565000000     2.395000000    -3.904000000
H    -4.066000000     3.178000000    -3.669000000
H    -5.446000000     2.564000000    -3.572000000
O     1.834000000     5.131000000    -1.406000000
H     1.012000000     4.857000000    -1.812000000
H     2.158000000     4.346000000    -0.965000000
O    -4.729000000    -4.704000000     2.309000000
H    -5.481000000    -4.289000000     1.885000000
H    -4.174000000    -3.972000000     2.580000000
O    -2.557000000    -1.470000000    -4.098000000
H    -3.450000000    -1.127000000    -4.077000000
H    -2.019000000    -0.758000000    -3.751000000
