158
-3022.41294
C    -0.943000000    -0.468000000     1.043000000
H    -1.779000000    -0.615000000     1.722000000
C    -1.314000000    -0.182000000    -0.289000000
H    -2.340000000    -0.029000000    -0.614000000
C    -0.317000000     0.041000000    -1.217000000
H    -0.640000000     0.326000000    -2.250000000
C     1.064000000    -0.005000000    -0.814000000
H     1.769000000     0.162000000    -1.624000000
C     1.305000000    -0.115000000     0.533000000
H     2.338000000    -0.105000000     0.873000000
C     0.371000000    -0.379000000     1.460000000
C     0.718000000    -0.395000000     2.921000000
O    -0.136000000    -0.226000000     3.757000000
O     1.894000000    -0.526000000     3.330000000
O     3.995000000    -3.968000000     2.736000000
H     4.458000000    -3.327000000     3.275000000
H     4.619000000    -4.197000000     2.047000000
O    -3.973000000     1.284000000     2.273000000
H    -4.766000000     0.967000000     2.705000000
H    -3.330000000     1.358000000     2.979000000
O     0.097000000     1.442000000    -7.790000000
H    -0.138000000     2.058000000    -7.095000000
H    -0.738000000     1.065000000    -8.068000000
O     3.469000000     5.572000000    -3.210000000
H     3.216000000     4.669000000    -3.017000000
H     4.241000000     5.490000000    -3.771000000
O    -1.050000000     3.152000000     0.003000000
H    -0.956000000     3.471000000    -0.894000000
H    -1.043000000     2.198000000    -0.079000000
O    -1.084000000    -3.380000000    -2.400000000
H    -2.026000000    -3.230000000    -2.483000000
H    -1.013000000    -4.122000000    -1.799000000
O    -1.736000000    -4.677000000     6.640000000
H    -2.547000000    -4.836000000     6.157000000
H    -1.546000000    -3.751000000     6.493000000
O     0.420000000     3.168000000     3.462000000
H     1.258000000     3.001000000     3.895000000
H    -0.104000000     2.389000000     3.647000000
O     0.732000000    -0.095000000     6.173000000
H     0.529000000    -0.252000000     5.251000000
H    -0.114000000    -0.149000000     6.618000000
O     3.164000000    -1.805000000    -5.673000000
H     3.450000000    -0.940000000    -5.966000000
H     2.605000000    -1.629000000    -4.916000000
O    -0.361000000    -4.098000000     2.070000000
H    -1.207000000    -4.388000000     1.727000000
H     0.127000000    -3.815000000     1.297000000
O     1.312000000     2.028000000    -4.019000000
H     0.680000000     2.398000000    -3.403000000
H     0.847000000     1.300000000    -4.431000000
O    -5.650000000    -0.258000000     0.013000000
H    -5.040000000    -0.025000000    -0.686000000
H    -5.659000000     0.507000000     0.588000000
O    -3.266000000     5.444000000    -2.434000000
H    -3.341000000     6.157000000    -1.800000000
H    -3.071000000     5.881000000    -3.264000000
O    -3.225000000    -1.936000000     7.032000000
H    -2.465000000    -1.364000000     6.929000000
H    -3.292000000    -2.398000000     6.196000000
O     0.893000000    -5.311000000     6.115000000
H     0.083000000    -4.911000000     6.432000000
H     1.327000000    -4.614000000     5.623000000
O     4.102000000    -2.402000000    -0.539000000
H     4.069000000    -2.530000000    -1.487000000
H     4.030000000    -3.285000000    -0.176000000
O     4.791000000    -1.254000000     6.463000000
H     4.058000000    -0.759000000     6.828000000
H     5.456000000    -1.239000000     7.151000000
O     1.787000000     3.946000000     0.572000000
H     2.478000000     3.378000000     0.913000000
H     0.987000000     3.428000000     0.659000000
O     5.335000000     3.796000000    -1.083000000
H     4.951000000     3.547000000    -1.924000000
H     4.962000000     3.176000000    -0.456000000
O     4.336000000    -1.375000000     4.001000000
H     3.544000000    -0.891000000     3.762000000
H     4.443000000    -1.210000000     4.938000000
O    -1.042000000     4.989000000     2.031000000
H    -1.085000000     4.718000000     1.114000000
H    -0.684000000     4.229000000     2.489000000
O    -1.644000000     0.166000000     7.765000000
H    -2.014000000     1.044000000     7.677000000
H    -1.232000000     0.165000000     8.629000000
O     3.938000000    -3.740000000     6.803000000
H     4.155000000    -2.808000000     6.766000000
H     3.245000000    -3.850000000     6.153000000
O     0.548000000    -2.385000000    -7.017000000
H     0.237000000    -1.686000000    -7.592000000
H     1.359000000    -2.043000000    -6.642000000
O    -2.297000000     1.197000000     4.485000000
H    -1.930000000     1.337000000     5.357000000
H    -1.693000000     0.584000000     4.066000000
O     5.284000000     0.352000000    -2.304000000
H     4.717000000    -0.134000000    -1.704000000
H     5.942000000    -0.285000000    -2.581000000
O    -4.355000000     2.928000000    -2.867000000
H    -5.268000000     3.048000000    -3.126000000
H    -4.070000000     3.797000000    -2.583000000
O     4.476000000     2.176000000     1.080000000
H     4.655000000     1.285000000     1.381000000
H     4.592000000     2.720000000     1.860000000
O    -5.269000000     0.707000000    -5.019000000
H    -5.866000000     1.441000000    -5.167000000
H    -5.732000000     0.142000000    -4.402000000
O    -1.300000000    -2.455000000     4.668000000
H    -1.036000000    -3.226000000     4.166000000
H    -0.879000000    -1.722000000     4.219000000
O     2.570000000     1.849000000     4.601000000
H     2.324000000     1.072000000     4.098000000
H     2.468000000     1.584000000     5.515000000
O     2.183000000     3.660000000    -6.494000000
H     2.832000000     3.319000000    -5.879000000
H     1.418000000     3.098000000    -6.371000000
O     5.173000000    -0.604000000     1.581000000
H     4.842000000    -1.138000000     2.303000000
H     4.789000000    -0.997000000     0.797000000
O    -4.200000000     0.325000000    -2.179000000
H    -4.092000000     1.274000000    -2.237000000
H    -4.961000000     0.136000000    -2.728000000
O     1.803000000    -5.375000000    -2.291000000
H     1.832000000    -5.132000000    -3.216000000
H     1.698000000    -4.543000000    -1.828000000
O    -3.689000000     4.086000000     3.953000000
H    -3.730000000     4.404000000     3.052000000
H    -2.848000000     3.632000000     4.009000000
O     1.100000000    -2.152000000    -3.560000000
H     0.728000000    -1.305000000    -3.312000000
H     0.427000000    -2.788000000    -3.319000000
O     2.219000000    -3.064000000     4.887000000
H     2.785000000    -3.183000000     4.124000000
H     1.862000000    -2.182000000     4.785000000
O     2.715000000     0.747000000     7.656000000
H     2.145000000     1.282000000     8.208000000
H     2.119000000     0.311000000     7.048000000
O     0.663000000    -3.379000000    -0.220000000
H     1.320000000    -2.683000000    -0.234000000
H     0.099000000    -3.192000000    -0.970000000
O    -0.910000000     3.315000000    -6.055000000
H    -1.205000000     3.075000000    -5.176000000
H    -0.796000000     4.264000000    -6.019000000
O    -4.208000000     3.513000000     0.541000000
H    -4.391000000     2.731000000     1.062000000
H    -3.254000000     3.530000000     0.461000000
O     3.929000000     2.628000000    -3.182000000
H     3.024000000     2.578000000    -3.487000000
H     4.271000000     1.742000000    -3.299000000
O    -2.702000000     1.757000000    -4.588000000
H    -3.259000000     1.205000000    -5.138000000
H    -3.267000000     2.020000000    -3.862000000
O    -0.548000000     4.070000000    -2.397000000
H     0.055000000     4.768000000    -2.653000000
H    -1.414000000     4.402000000    -2.634000000
O     5.572000000     2.294000000     3.950000000
H     4.826000000     1.707000000     4.072000000
H     6.338000000     1.722000000     4.005000000
O    -0.715000000    -0.001000000    -4.662000000
H    -1.476000000     0.576000000    -4.729000000
H    -0.908000000    -0.721000000    -5.263000000
