158
-2987.58156
C    -1.075000000     0.056000000     0.949000000
H    -1.928000000     0.293000000     1.580000000
C    -1.094000000     0.583000000    -0.335000000
H    -2.034000000     1.040000000    -0.636000000
C    -0.050000000     0.330000000    -1.191000000
H    -0.066000000     0.621000000    -2.183000000
C     1.093000000    -0.205000000    -0.715000000
H     1.877000000    -0.242000000    -1.468000000
C     1.192000000    -0.696000000     0.613000000
H     2.002000000    -1.276000000     1.046000000
C     0.110000000    -0.546000000     1.524000000
C     0.244000000    -0.920000000     2.949000000
O    -0.760000000    -0.700000000     3.649000000
O     1.223000000    -1.453000000     3.381000000
O    -6.368000000     2.514000000     0.863000000
H    -5.756000000     1.919000000     1.296000000
H    -5.828000000     2.998000000     0.238000000
O    -4.572000000     1.361000000     2.531000000
H    -4.480000000     0.429000000     2.335000000
H    -4.029000000     1.497000000     3.308000000
O     1.052000000     1.630000000    -5.307000000
H     1.770000000     1.544000000    -4.680000000
H     0.479000000     0.887000000    -5.120000000
O     4.635000000     4.616000000    -2.952000000
H     5.211000000     4.548000000    -3.713000000
H     4.212000000     3.759000000    -2.894000000
O    -1.053000000     3.983000000     0.785000000
H    -1.824000000     4.512000000     0.582000000
H    -0.748000000     3.667000000    -0.066000000
O    -0.539000000    -2.526000000    -1.629000000
H    -0.452000000    -1.628000000    -1.311000000
H    -0.038000000    -3.051000000    -1.005000000
O     0.404000000     2.017000000     4.272000000
H     0.133000000     1.147000000     4.566000000
H     0.571000000     1.911000000     3.336000000
O     5.322000000    -4.231000000     1.233000000
H     5.022000000    -3.450000000     1.699000000
H     6.265000000    -4.104000000     1.135000000
O     4.310000000    -4.435000000     5.044000000
H     3.696000000    -4.833000000     4.427000000
H     4.372000000    -3.522000000     4.765000000
O    -2.657000000    -1.137000000    -2.534000000
H    -2.046000000    -0.618000000    -3.057000000
H    -2.101000000    -1.751000000    -2.055000000
O     0.497000000    -1.365000000     6.574000000
H     0.263000000    -2.242000000     6.271000000
H    -0.281000000    -0.835000000     6.397000000
O     1.726000000     1.890000000     7.424000000
H     1.931000000     1.399000000     6.629000000
H     1.721000000     2.806000000     7.146000000
O    -1.035000000    -4.937000000     3.133000000
H    -0.761000000    -4.967000000     2.217000000
H    -1.537000000    -5.742000000     3.260000000
O     1.620000000     3.028000000    -0.696000000
H     0.850000000     2.677000000    -1.144000000
H     1.805000000     2.392000000    -0.004000000
O    -4.737000000    -1.227000000     2.610000000
H    -4.894000000    -1.836000000     1.888000000
H    -5.074000000    -1.681000000     3.382000000
O    -3.184000000    -2.032000000     7.293000000
H    -2.549000000    -1.321000000     7.385000000
H    -3.288000000    -2.139000000     6.347000000
O     5.161000000    -2.847000000    -2.443000000
H     4.353000000    -3.340000000    -2.585000000
H     5.829000000    -3.518000000    -2.300000000
O     2.877000000     5.067000000     0.354000000
H     3.707000000     4.615000000     0.509000000
H     2.404000000     4.496000000    -0.252000000
O     4.009000000    -2.213000000     3.090000000
H     3.071000000    -2.045000000     3.173000000
H     4.398000000    -1.778000000     3.849000000
O    -1.614000000     3.975000000     3.829000000
H    -1.104000000     3.589000000     3.117000000
H    -1.320000000     3.511000000     4.613000000
O     1.710000000    -4.233000000     7.376000000
H     1.927000000    -3.326000000     7.589000000
H     1.480000000    -4.214000000     6.447000000
O    -2.733000000     0.738000000     4.525000000
H    -2.442000000     1.476000000     5.060000000
H    -1.936000000     0.233000000     4.361000000
O     5.850000000    -0.235000000    -2.184000000
H     5.521000000    -1.117000000    -2.356000000
H     6.789000000    -0.290000000    -2.365000000
O    -4.518000000     4.505000000    -3.683000000
H    -4.862000000     4.103000000    -4.480000000
H    -3.570000000     4.524000000    -3.815000000
O    -2.404000000    -2.754000000     4.190000000
H    -2.061000000    -3.299000000     3.482000000
H    -1.836000000    -1.983000000     4.195000000
O     2.705000000     0.288000000     5.198000000
H     2.121000000    -0.166000000     4.590000000
H     3.086000000    -0.409000000     5.731000000
O    -0.058000000     3.998000000    -5.469000000
H     0.295000000     3.109000000    -5.432000000
H    -0.972000000     3.905000000    -5.201000000
O     6.020000000     0.990000000     0.560000000
H     6.205000000     0.320000000     1.217000000
H     5.903000000     0.502000000    -0.255000000
O     5.041000000    -1.527000000     5.649000000
H     5.218000000    -0.612000000     5.869000000
H     5.758000000    -2.014000000     6.056000000
O    -4.972000000    -2.750000000    -2.256000000
H    -4.395000000    -1.987000000    -2.233000000
H    -5.848000000    -2.393000000    -2.110000000
O     6.639000000    -1.076000000     2.311000000
H     5.745000000    -1.396000000     2.431000000
H     7.092000000    -1.790000000     1.862000000
O    -4.496000000     4.288000000     3.303000000
H    -3.676000000     4.630000000     3.658000000
H    -4.225000000     3.612000000     2.682000000
O     0.369000000    -2.345000000    -4.440000000
H     0.028000000    -1.492000000    -4.709000000
H     0.276000000    -2.351000000    -3.487000000
O     0.304000000    -3.583000000     4.995000000
H    -0.135000000    -4.128000000     4.342000000
H     0.428000000    -2.740000000     4.558000000
O     2.317000000    -1.751000000     8.360000000
H     2.589000000    -1.009000000     8.900000000
H     1.601000000    -1.409000000     7.826000000
O     2.810000000    -4.465000000     0.565000000
H     2.619000000    -4.763000000     1.455000000
H     3.764000000    -4.497000000     0.502000000
O    -2.333000000     2.693000000    -4.956000000
H    -3.001000000     2.206000000    -4.473000000
H    -2.482000000     2.458000000    -5.872000000
O    -4.855000000     4.148000000    -0.675000000
H    -4.838000000     4.176000000    -1.632000000
H    -4.109000000     4.685000000    -0.407000000
O    -2.759000000     1.418000000    -7.102000000
H    -2.200000000     0.658000000    -7.263000000
H    -2.523000000     2.039000000    -7.791000000
O     2.868000000     3.847000000    -6.563000000
H     3.514000000     3.915000000    -5.859000000
H     2.156000000     3.330000000    -6.186000000
O     3.621000000     1.461000000    -3.966000000
H     4.284000000     1.211000000    -3.322000000
H     3.895000000     1.027000000    -4.773000000
O    -3.517000000     1.453000000    -2.711000000
H    -3.775000000     0.533000000    -2.658000000
H    -4.019000000     1.883000000    -2.019000000
O     1.040000000    -4.777000000    -1.612000000
H     1.664000000    -4.842000000    -0.889000000
H     1.586000000    -4.707000000    -2.395000000
O    -1.191000000     3.651000000    -1.779000000
H    -1.489000000     4.518000000    -2.052000000
H    -1.734000000     3.042000000    -2.278000000
O     3.045000000     2.502000000     3.399000000
H     2.600000000     1.752000000     3.793000000
H     3.976000000     2.294000000     3.474000000
O    -5.565000000    -1.942000000     5.065000000
H    -5.606000000    -2.434000000     5.885000000
H    -4.697000000    -1.538000000     5.071000000
O    -1.813000000     5.790000000    -3.264000000
H    -2.317000000     6.398000000    -3.804000000
H    -0.916000000     5.869000000    -3.588000000
O    -1.176000000     0.123000000    -4.613000000
H    -1.509000000     1.018000000    -4.543000000
H    -1.728000000    -0.286000000    -5.280000000
