158
-3014.12193
C    -0.689000000    -1.089000000     0.633000000
H    -1.380000000    -1.822000000     1.041000000
C    -1.061000000    -0.526000000    -0.654000000
H    -2.006000000    -0.852000000    -1.082000000
C    -0.266000000     0.491000000    -1.087000000
H    -0.559000000     1.012000000    -2.035000000
C     0.888000000     0.897000000    -0.446000000
H     1.558000000     1.594000000    -0.943000000
C     1.256000000     0.356000000     0.862000000
H     2.084000000     0.661000000     1.497000000
C     0.442000000    -0.686000000     1.340000000
C     0.791000000    -1.281000000     2.659000000
O     0.077000000    -2.195000000     3.067000000
O     1.666000000    -0.832000000     3.413000000
O    -2.155000000    -6.169000000    -0.042000000
H    -2.650000000    -5.858000000    -0.800000000
H    -2.428000000    -7.080000000     0.065000000
O    -3.223000000     0.898000000    -2.309000000
H    -3.622000000     0.800000000    -1.445000000
H    -3.639000000     1.678000000    -2.677000000
O    -6.956000000     0.019000000    -0.950000000
H    -6.080000000     0.361000000    -0.773000000
H    -7.103000000    -0.630000000    -0.262000000
O     1.194000000     1.851000000     8.083000000
H     1.822000000     1.136000000     8.186000000
H     0.958000000     1.832000000     7.155000000
O    -4.573000000     0.518000000     0.240000000
H    -3.962000000     1.128000000     0.653000000
H    -4.813000000    -0.091000000     0.939000000
O    -2.864000000     2.895000000     0.234000000
H    -2.415000000     3.130000000    -0.578000000
H    -2.243000000     2.331000000     0.696000000
O    -1.410000000     2.601000000     5.174000000
H    -0.696000000     1.973000000     5.286000000
H    -1.799000000     2.373000000     4.330000000
O    -2.165000000    -1.128000000    -3.910000000
H    -1.325000000    -1.250000000    -3.468000000
H    -2.592000000    -0.423000000    -3.424000000
O    -2.371000000    -1.800000000     3.671000000
H    -2.862000000    -1.914000000     2.857000000
H    -1.494000000    -2.127000000     3.469000000
O     3.750000000     0.987000000     5.061000000
H     2.934000000     1.361000000     4.728000000
H     4.429000000     1.593000000     4.765000000
O    -1.538000000     2.949000000    -5.196000000
H    -2.298000000     2.445000000    -5.485000000
H    -0.810000000     2.602000000    -5.712000000
O    -2.545000000     0.973000000     2.898000000
H    -2.089000000     0.205000000     3.241000000
H    -3.400000000     0.957000000     3.328000000
O     3.998000000     3.447000000    -0.585000000
H     4.826000000     3.360000000    -0.112000000
H     3.902000000     2.618000000    -1.053000000
O     3.863000000     0.995000000    -2.226000000
H     4.756000000     1.172000000    -2.522000000
H     3.326000000     1.098000000    -3.012000000
O     1.753000000     4.867000000    -0.287000000
H     1.498000000     5.028000000    -1.195000000
H     2.597000000     4.421000000    -0.350000000
O     2.219000000    -1.270000000    -2.057000000
H     2.657000000    -0.437000000    -2.229000000
H     1.410000000    -1.027000000    -1.606000000
O     2.514000000     4.038000000     2.446000000
H     3.467000000     4.067000000     2.363000000
H     2.195000000     4.005000000     1.544000000
O     5.697000000    -0.944000000     4.914000000
H     6.409000000    -0.596000000     5.450000000
H     4.992000000    -0.303000000     5.007000000
O     1.356000000     4.599000000     4.864000000
H     1.175000000     3.691000000     5.105000000
H     1.775000000     4.540000000     4.005000000
O    -3.511000000    -5.705000000     2.531000000
H    -3.181000000    -5.743000000     1.633000000
H    -2.724000000    -5.661000000     3.074000000
O    -3.954000000    -2.306000000     1.446000000
H    -3.248000000    -2.837000000     1.077000000
H    -4.675000000    -2.400000000     0.823000000
O    -3.610000000     0.187000000    -5.621000000
H    -3.979000000    -0.446000000    -6.236000000
H    -3.052000000    -0.336000000    -5.045000000
O    -0.296000000     1.147000000    -7.031000000
H     0.377000000     0.474000000    -7.135000000
H    -1.110000000     0.712000000    -7.283000000
O    -2.349000000    -1.795000000     6.362000000
H    -2.720000000    -2.676000000     6.423000000
H    -2.443000000    -1.560000000     5.439000000
O    -0.047000000    -4.323000000    -0.049000000
H    -0.800000000    -4.914000000    -0.047000000
H    -0.210000000    -3.730000000    -0.783000000
O    -4.473000000     4.570000000    -3.158000000
H    -4.488000000     3.669000000    -3.483000000
H    -3.561000000     4.719000000    -2.908000000
O     5.114000000     3.127000000     2.460000000
H     5.718000000     2.481000000     2.092000000
H     5.650000000     3.636000000     3.069000000
O    -2.486000000    -2.822000000    -5.823000000
H    -2.490000000    -2.222000000    -5.077000000
H    -2.832000000    -2.304000000    -6.549000000
O    -4.807000000    -3.707000000     4.175000000
H    -4.569000000    -2.968000000     3.615000000
H    -4.586000000    -4.481000000     3.657000000
O     5.332000000     0.423000000     0.000000000
H     5.626000000    -0.360000000     0.465000000
H     4.478000000     0.182000000    -0.359000000
O    -4.435000000     4.517000000     1.568000000
H    -5.169000000     4.677000000     0.975000000
H    -3.857000000     3.930000000     1.080000000
O    -0.088000000    -0.348000000     6.595000000
H     0.149000000    -0.413000000     7.520000000
H    -0.730000000    -1.046000000     6.462000000
O     3.929000000    -2.355000000     3.262000000
H     3.093000000    -1.889000000     3.290000000
H     4.590000000    -1.667000000     3.337000000
O     0.179000000    -3.225000000    -2.863000000
H     0.276000000    -4.093000000    -3.253000000
H     1.075000000    -2.908000000    -2.756000000
O    -0.583000000    -4.665000000     2.678000000
H    -0.119000000    -3.884000000     2.980000000
H    -0.407000000    -4.701000000     1.738000000
O     1.259000000     1.735000000     4.097000000
H     1.399000000     0.789000000     4.137000000
H     1.437000000     1.965000000     3.185000000
O     2.486000000    -2.262000000     5.896000000
H     1.861000000    -1.835000000     5.310000000
H     3.267000000    -2.393000000     5.359000000
O    -0.969000000    -6.137000000     5.049000000
H    -0.568000000    -5.913000000     4.210000000
H    -0.557000000    -5.545000000     5.678000000
O     1.055000000    -1.150000000    -5.592000000
H     1.896000000    -1.543000000    -5.826000000
H     0.462000000    -1.894000000    -5.492000000
O     2.723000000     0.988000000    -4.685000000
H     1.969000000     0.400000000    -4.734000000
H     2.696000000     1.482000000    -5.504000000
O    -3.055000000    -5.299000000    -2.377000000
H    -2.667000000    -5.398000000    -3.246000000
H    -3.557000000    -4.486000000    -2.429000000
O     4.487000000    -5.057000000     2.711000000
H     4.206000000    -4.210000000     3.057000000
H     5.435000000    -5.066000000     2.841000000
O    -4.809000000     2.102000000    -4.156000000
H    -5.695000000     1.842000000    -3.901000000
H    -4.450000000     1.330000000    -4.594000000
O     0.757000000     5.620000000    -2.724000000
H     1.676000000     5.360000000    -2.783000000
H     0.722000000     6.476000000    -3.151000000
O     3.097000000    -0.091000000     7.397000000
H     3.471000000     0.338000000     6.628000000
H     2.757000000    -0.922000000     7.066000000
O    -5.563000000    -3.164000000    -0.832000000
H    -6.516000000    -3.149000000    -0.916000000
H    -5.244000000    -2.809000000    -1.662000000
O    -2.436000000     6.880000000    -1.588000000
H    -2.287000000     6.023000000    -1.989000000
H    -2.529000000     6.694000000    -0.653000000
O    -1.748000000     4.465000000    -2.562000000
H    -1.803000000     3.962000000    -3.374000000
H    -0.813000000     4.638000000    -2.450000000
