158
-3051.69828
C    -0.537000000    -1.403000000    -0.006000000
H    -1.046000000    -2.359000000    -0.094000000
C    -0.429000000    -0.475000000    -1.068000000
H    -0.822000000    -0.708000000    -2.054000000
C     0.096000000     0.834000000    -0.909000000
H     0.152000000     1.604000000    -1.648000000
C     0.577000000     1.244000000     0.324000000
H     1.066000000     2.209000000     0.428000000
C     0.426000000     0.342000000     1.377000000
H     0.700000000     0.610000000     2.394000000
C    -0.152000000    -0.943000000     1.247000000
C    -0.140000000    -1.873000000     2.398000000
O    -0.758000000    -2.942000000     2.315000000
O     0.542000000    -1.657000000     3.403000000
O     1.469000000     3.689000000    -2.235000000
H     1.265000000     4.474000000    -2.742000000
H     0.839000000     3.698000000    -1.515000000
O     4.084000000     4.557000000    -1.408000000
H     3.550000000     4.296000000    -2.158000000
H     3.453000000     4.713000000    -0.706000000
O    -3.105000000    -3.124000000     1.260000000
H    -3.272000000    -2.184000000     1.199000000
H    -2.240000000    -3.188000000     1.665000000
O    -2.987000000     0.119000000    -3.668000000
H    -3.193000000     0.750000000    -4.358000000
H    -2.049000000     0.231000000    -3.514000000
O    -3.966000000    -0.508000000     1.119000000
H    -3.588000000     0.169000000     1.681000000
H    -4.283000000    -0.032000000     0.351000000
O     0.998000000    -3.512000000    -5.045000000
H     0.404000000    -3.544000000    -4.296000000
H     1.860000000    -3.353000000    -4.661000000
O     3.464000000    -0.469000000    -3.067000000
H     3.729000000    -1.014000000    -3.808000000
H     3.267000000     0.383000000    -3.455000000
O    -2.940000000     1.432000000     2.995000000
H    -2.931000000     1.652000000     3.926000000
H    -2.242000000     1.966000000     2.615000000
O     3.450000000     1.296000000     1.313000000
H     3.864000000     0.998000000     0.503000000
H     2.580000000     0.899000000     1.297000000
O    -0.806000000     3.068000000     2.854000000
H    -0.647000000     3.644000000     3.602000000
H     0.050000000     2.686000000     2.660000000
O     2.371000000     2.007000000    -4.104000000
H     2.157000000     2.347000000    -4.973000000
H     1.871000000     2.559000000    -3.502000000
O     0.700000000     0.308000000     5.470000000
H    -0.238000000     0.437000000     5.330000000
H     0.980000000    -0.235000000     4.734000000
O    -0.402000000    -4.299000000     4.567000000
H    -1.305000000    -4.601000000     4.662000000
H    -0.420000000    -3.729000000     3.798000000
O    -4.048000000     1.248000000    -1.276000000
H    -4.849000000     1.602000000    -1.663000000
H    -3.592000000     0.833000000    -2.008000000
O    -4.453000000    -2.065000000    -3.138000000
H    -5.392000000    -1.921000000    -3.253000000
H    -4.050000000    -1.236000000    -3.397000000
O     1.037000000    -6.557000000     0.027000000
H     0.576000000    -6.271000000    -0.762000000
H     1.071000000    -5.777000000     0.581000000
O    -2.692000000    -3.860000000    -1.553000000
H    -3.544000000    -3.603000000    -1.904000000
H    -2.710000000    -3.569000000    -0.641000000
O    -0.397000000    -4.435000000    -2.987000000
H    -1.137000000    -4.072000000    -2.501000000
H    -0.433000000    -5.375000000    -2.813000000
O    -0.096000000    -7.140000000     2.975000000
H     0.810000000    -7.203000000     2.675000000
H    -0.122000000    -6.336000000     3.494000000
O     2.183000000     3.311000000     2.922000000
H     2.366000000     4.182000000     3.274000000
H     3.027000000     3.005000000     2.588000000
O     2.175000000    -3.223000000     5.422000000
H     2.326000000    -3.527000000     6.317000000
H     1.292000000    -3.527000000     5.212000000
O     4.667000000     0.632000000    -0.947000000
H     4.932000000     1.440000000    -1.387000000
H     4.143000000     0.166000000    -1.598000000
O    -2.771000000    -5.782000000     4.859000000
H    -3.019000000    -6.443000000     5.505000000
H    -2.987000000    -6.178000000     4.015000000
O    -1.251000000    -2.225000000     7.471000000
H    -0.870000000    -1.447000000     7.064000000
H    -1.391000000    -1.973000000     8.384000000
O     0.040000000    -4.603000000     7.301000000
H    -0.418000000    -4.894000000     6.512000000
H    -0.283000000    -3.715000000     7.452000000
O     4.432000000    -2.470000000     4.135000000
H     3.661000000    -2.673000000     4.664000000
H     4.842000000    -1.731000000     4.584000000
O     4.505000000     0.309000000    -5.656000000
H     4.187000000     0.028000000    -6.514000000
H     3.894000000     0.996000000    -5.389000000
O     2.530000000    -2.512000000    -0.649000000
H     2.453000000    -1.743000000    -1.213000000
H     2.825000000    -2.164000000     0.192000000
O    -5.102000000    -4.553000000     2.084000000
H    -4.428000000    -3.946000000     1.779000000
H    -4.651000000    -5.393000000     2.163000000
O     3.022000000    -1.753000000     1.991000000
H     2.285000000    -1.502000000     2.548000000
H     3.721000000    -1.978000000     2.605000000
O    -2.584000000     1.343000000     5.927000000
H    -2.563000000     0.445000000     5.597000000
H    -1.876000000     1.379000000     6.570000000
O     5.223000000     1.329000000     3.601000000
H     4.911000000     0.869000000     2.821000000
H     5.518000000     2.179000000     3.275000000
O    -3.798000000    -2.832000000     5.887000000
H    -3.921000000    -3.738000000     5.604000000
H    -3.045000000    -2.865000000     6.477000000
O     1.215000000     6.347000000    -3.026000000
H     1.732000000     6.815000000    -2.370000000
H     1.329000000     6.857000000    -3.828000000
O    -2.613000000    -6.338000000    -0.169000000
H    -2.797000000    -5.435000000    -0.425000000
H    -1.949000000    -6.634000000    -0.792000000
O     3.978000000    -5.031000000     3.025000000
H     4.052000000    -4.280000000     3.614000000
H     3.162000000    -4.882000000     2.548000000
O    -1.896000000    -1.126000000     4.519000000
H    -2.485000000    -1.845000000     4.747000000
H    -1.172000000    -1.547000000     4.057000000
O     0.110000000     0.100000000    -4.433000000
H     0.443000000     0.876000000    -4.882000000
H     0.849000000    -0.209000000    -3.909000000
O    -1.888000000     5.378000000    -2.341000000
H    -1.284000000     5.116000000    -1.646000000
H    -2.709000000     4.938000000    -2.122000000
O     1.407000000    -4.357000000     1.438000000
H     1.913000000    -3.608000000     1.124000000
H     0.596000000    -3.974000000     1.774000000
O     3.248000000     1.241000000     5.870000000
H     3.600000000     1.184000000     4.982000000
H     2.374000000     0.857000000     5.806000000
O    -4.192000000     2.555000000    -5.320000000
H    -4.201000000     3.493000000    -5.512000000
H    -4.413000000     2.138000000    -6.153000000
O    -0.366000000     4.356000000    -0.194000000
H    -0.642000000     3.440000000    -0.170000000
H    -0.694000000     4.727000000     0.626000000
O     1.420000000     2.188000000    -6.507000000
H     1.486000000     1.403000000    -7.051000000
H     0.653000000     2.650000000    -6.845000000
O    -0.914000000     5.737000000    -5.442000000
H    -0.953000000     5.488000000    -4.519000000
H    -1.777000000     6.110000000    -5.626000000
O     2.886000000     6.251000000     0.924000000
H     2.806000000     6.208000000     1.877000000
H     3.709000000     5.800000000     0.733000000
O    -2.576000000    -3.193000000    -4.958000000
H    -1.977000000    -2.455000000    -4.848000000
H    -3.272000000    -3.033000000    -4.320000000
O    -3.352000000     3.324000000     0.361000000
H    -3.330000000     2.899000000     1.219000000
H    -3.466000000     2.605000000    -0.260000000
