158
-3035.01505
C    -0.513000000    -0.918000000    -1.031000000
H    -0.775000000    -1.559000000    -1.870000000
C    -0.002000000     0.393000000    -1.196000000
H     0.134000000     0.758000000    -2.211000000
C     0.344000000     1.183000000    -0.137000000
H     0.818000000     2.131000000    -0.247000000
C     0.217000000     0.660000000     1.155000000
H     0.474000000     1.281000000     2.010000000
C    -0.100000000    -0.700000000     1.365000000
H    -0.138000000    -1.181000000     2.339000000
C    -0.468000000    -1.504000000     0.215000000
C    -0.819000000    -2.975000000     0.287000000
O    -1.140000000    -3.600000000    -0.718000000
O    -0.812000000    -3.389000000     1.404000000
O     5.517000000     1.043000000    -3.843000000
H     6.433000000     1.067000000    -4.118000000
H     5.418000000     1.805000000    -3.273000000
O     3.479000000    -1.386000000    -3.541000000
H     4.308000000    -1.074000000    -3.179000000
H     3.693000000    -2.230000000    -3.938000000
O     2.673000000    -5.345000000    -0.873000000
H     2.159000000    -4.798000000    -1.467000000
H     2.513000000    -6.240000000    -1.174000000
O     2.144000000     4.122000000    -2.263000000
H     2.934000000     4.311000000    -1.757000000
H     2.353000000     3.321000000    -2.743000000
O    -3.757000000    -2.846000000    -1.071000000
H    -3.819000000    -2.392000000    -0.231000000
H    -2.820000000    -3.001000000    -1.191000000
O    -4.656000000    -1.972000000     1.342000000
H    -4.903000000    -2.712000000     1.896000000
H    -4.315000000    -1.318000000     1.952000000
O    -0.337000000    -6.489000000    -3.749000000
H    -0.450000000    -7.003000000    -2.949000000
H     0.023000000    -5.655000000    -3.449000000
O    -1.821000000     6.791000000     2.738000000
H    -1.522000000     7.699000000     2.680000000
H    -1.152000000     6.288000000     2.274000000
O     0.164000000    -5.990000000     1.731000000
H     0.573000000    -6.203000000     0.892000000
H    -0.237000000    -5.132000000     1.591000000
O    -1.115000000     3.125000000     3.423000000
H    -0.159000000     3.124000000     3.361000000
H    -1.411000000     3.332000000     2.536000000
O    -4.392000000    -0.485000000     4.020000000
H    -3.497000000    -0.162000000     3.913000000
H    -4.767000000     0.070000000     4.703000000
O    -1.894000000     2.846000000     0.805000000
H    -2.281000000     3.171000000    -0.008000000
H    -1.698000000     1.926000000     0.625000000
O     0.691000000     1.274000000    -5.161000000
H    -0.237000000     1.466000000    -5.023000000
H     0.928000000     1.780000000    -5.938000000
O     1.004000000    -3.106000000     3.454000000
H     1.876000000    -3.383000000     3.169000000
H     0.518000000    -2.973000000     2.641000000
O    -4.232000000     4.259000000     2.158000000
H    -4.988000000     3.673000000     2.200000000
H    -3.486000000     3.678000000     2.012000000
O     2.413000000     4.824000000     1.711000000
H     2.779000000     5.535000000     2.237000000
H     1.468000000     4.977000000     1.725000000
O     0.462000000     8.343000000    -2.303000000
H    -0.319000000     8.699000000    -1.879000000
H     0.319000000     7.397000000    -2.315000000
O     2.628000000     1.720000000    -3.317000000
H     2.045000000     1.728000000    -4.076000000
H     3.317000000     1.098000000    -3.551000000
O     4.962000000     3.711000000     2.927000000
H     4.331000000     3.149000000     2.476000000
H     4.794000000     3.561000000     3.857000000
O    -4.989000000    -4.428000000    -3.067000000
H    -4.761000000    -3.947000000    -2.271000000
H    -4.191000000    -4.904000000    -3.296000000
O    -3.594000000    -5.182000000     1.931000000
H    -4.292000000    -4.820000000     2.477000000
H    -2.832000000    -4.634000000     2.121000000
O     2.544000000    -0.474000000     3.668000000
H     2.344000000     0.368000000     3.259000000
H     2.136000000    -1.122000000     3.094000000
O    -2.226000000    -3.344000000     3.596000000
H    -2.232000000    -2.392000000     3.695000000
H    -1.673000000    -3.502000000     2.831000000
O     0.636000000    -1.365000000    -3.904000000
H     1.533000000    -1.419000000    -3.575000000
H     0.469000000    -0.426000000    -3.990000000
O     3.340000000    -3.984000000     1.629000000
H     3.901000000    -4.614000000     2.081000000
H     2.995000000    -4.466000000     0.878000000
O    -1.924000000     0.353000000     3.938000000
H    -1.135000000     0.060000000     4.393000000
H    -1.725000000     1.250000000     3.667000000
O     3.250000000     0.404000000    -0.815000000
H     3.099000000     0.649000000    -1.728000000
H     2.449000000    -0.050000000    -0.554000000
O    -0.199000000     5.652000000    -2.464000000
H     0.342000000     4.920000000    -2.761000000
H    -0.902000000     5.241000000    -1.961000000
O    -4.613000000    -1.008000000    -3.176000000
H    -5.474000000    -0.647000000    -2.961000000
H    -4.304000000    -1.394000000    -2.356000000
O     5.712000000     3.189000000    -2.109000000
H     5.474000000     3.808000000    -1.418000000
H     6.080000000     3.736000000    -2.803000000
O     2.071000000     2.647000000     3.583000000
H     2.264000000     2.660000000     2.646000000
H     2.920000000     2.504000000     4.001000000
O    -0.467000000    -6.210000000     4.978000000
H     0.449000000    -6.316000000     4.722000000
H    -0.665000000    -5.294000000     4.785000000
O     2.337000000    -0.839000000    -6.455000000
H     1.668000000    -0.361000000    -5.964000000
H     3.104000000    -0.267000000    -6.435000000
O    -2.484000000     4.783000000    -1.039000000
H    -2.741000000     5.705000000    -1.066000000
H    -3.176000000     4.327000000    -1.517000000
O     0.577000000    -4.067000000    -2.663000000
H    -0.042000000    -4.086000000    -1.934000000
H     0.589000000    -3.152000000    -2.944000000
O    -1.315000000    -8.123000000    -1.548000000
H    -1.781000000    -7.395000000    -1.137000000
H    -1.949000000    -8.839000000    -1.557000000
O    -1.537000000     4.742000000     5.692000000
H    -1.581000000     4.114000000     4.970000000
H    -2.005000000     5.511000000     5.369000000
O    -0.305000000    -1.656000000     5.327000000
H     0.243000000    -2.175000000     4.739000000
H     0.249000000    -1.495000000     6.091000000
O     0.668000000     2.110000000     5.858000000
H     1.097000000     2.259000000     5.015000000
H     1.045000000     2.771000000     6.439000000
O     2.190000000    -6.245000000     3.900000000
H     3.100000000    -5.961000000     3.813000000
H     1.955000000    -6.568000000     3.031000000
O     3.913000000     1.589000000     1.495000000
H     4.545000000     0.992000000     1.896000000
H     3.689000000     1.176000000     0.661000000
O    -1.640000000    -2.904000000    -4.972000000
H    -0.995000000    -3.559000000    -4.708000000
H    -1.121000000    -2.129000000    -5.186000000
O    -1.997000000    -7.928000000     2.261000000
H    -2.331000000    -7.368000000     1.561000000
H    -1.155000000    -7.538000000     2.499000000
O    -2.308000000    -5.928000000    -0.384000000
H    -2.702000000    -5.713000000     0.462000000
H    -1.878000000    -5.119000000    -0.661000000
O    -2.033000000     1.047000000    -3.981000000
H    -2.008000000     1.024000000    -3.024000000
H    -2.950000000     0.882000000    -4.200000000
O    -0.180000000     5.275000000     1.098000000
H     0.211000000     5.402000000     0.233000000
H    -0.859000000     4.614000000     0.959000000
O     4.669000000     5.019000000    -0.198000000
H     4.029000000     4.826000000     0.487000000
H     4.554000000     5.953000000    -0.376000000
O     3.187000000    -1.889000000     5.810000000
H     3.157000000    -1.419000000     4.977000000
H     3.319000000    -1.205000000     6.467000000
