158
-3039.28670
C    -1.113000000    -0.958000000    -0.347000000
H    -1.818000000    -1.637000000    -0.820000000
C    -0.559000000     0.022000000    -1.169000000
H    -0.841000000    -0.007000000    -2.218000000
C     0.421000000     0.877000000    -0.757000000
H     0.852000000     1.533000000    -1.499000000
C     0.854000000     0.867000000     0.566000000
H     1.520000000     1.603000000     1.010000000
C     0.232000000    -0.042000000     1.427000000
H     0.564000000    -0.142000000     2.457000000
C    -0.661000000    -1.066000000     0.980000000
C    -1.014000000    -2.287000000     1.834000000
O    -1.907000000    -3.007000000     1.461000000
O    -0.297000000    -2.598000000     2.792000000
O     0.785000000     2.604000000    -6.939000000
H     0.114000000     2.424000000    -6.281000000
H     0.938000000     1.759000000    -7.363000000
O     5.122000000     1.923000000    -4.902000000
H     5.169000000     1.377000000    -5.687000000
H     4.646000000     2.704000000    -5.181000000
O     2.981000000     4.081000000    -0.794000000
H     2.157000000     4.154000000    -0.312000000
H     2.714000000     3.919000000    -1.699000000
O    -4.452000000    -1.487000000     1.518000000
H    -4.102000000    -0.617000000     1.712000000
H    -3.766000000    -2.090000000     1.805000000
O    -4.612000000     0.405000000    -4.857000000
H    -4.728000000     0.028000000    -3.985000000
H    -3.667000000     0.531000000    -4.940000000
O    -3.235000000     1.152000000     2.151000000
H    -2.958000000     1.075000000     3.064000000
H    -2.768000000     1.920000000     1.822000000
O     1.719000000    -3.705000000     0.760000000
H     1.781000000    -2.871000000     0.295000000
H     1.204000000    -3.505000000     1.542000000
O     0.437000000     2.947000000     3.031000000
H     0.734000000     2.074000000     3.287000000
H     0.157000000     3.355000000     3.851000000
O    -1.821000000     0.531000000     4.593000000
H    -1.369000000    -0.306000000     4.701000000
H    -1.221000000     1.177000000     4.966000000
O     4.678000000    -0.811000000     0.824000000
H     3.953000000    -1.248000000     0.377000000
H     4.701000000    -1.213000000     1.692000000
O    -0.491000000     2.848000000     5.489000000
H    -0.368000000     2.468000000     6.358000000
H    -0.985000000     3.653000000     5.647000000
O    -1.461000000     2.728000000     0.996000000
H    -0.876000000     2.921000000     1.728000000
H    -0.963000000     2.126000000     0.443000000
O     1.868000000     3.023000000    -3.137000000
H     0.989000000     2.862000000    -3.479000000
H     2.319000000     3.484000000    -3.845000000
O     2.414000000    -4.119000000     4.276000000
H     2.159000000    -4.833000000     3.692000000
H     1.587000000    -3.704000000     4.522000000
O    -4.672000000    -3.403000000     5.659000000
H    -5.246000000    -3.403000000     4.893000000
H    -3.787000000    -3.377000000     5.295000000
O    -1.180000000    -7.330000000     3.935000000
H    -1.780000000    -7.634000000     3.254000000
H    -0.484000000    -6.880000000     3.456000000
O    -6.591000000    -3.116000000     0.830000000
H    -6.807000000    -2.640000000     0.028000000
H    -5.889000000    -2.604000000     1.231000000
O     3.229000000     0.638000000    -2.621000000
H     2.718000000     1.442000000    -2.721000000
H     4.089000000     0.936000000    -2.325000000
O    -3.623000000    -4.515000000    -0.644000000
H    -3.358000000    -3.604000000    -0.511000000
H    -3.235000000    -4.987000000     0.093000000
O    -2.253000000     3.561000000    -6.055000000
H    -2.327000000     3.171000000    -5.185000000
H    -2.245000000     2.814000000    -6.653000000
O     4.055000000    -1.922000000     3.337000000
H     3.309000000    -1.344000000     3.499000000
H     3.717000000    -2.802000000     3.503000000
O    -2.010000000    -3.927000000     4.266000000
H    -1.361000000    -3.722000000     4.940000000
H    -1.551000000    -3.778000000     3.439000000
O     2.385000000    -1.180000000    -0.787000000
H     1.827000000    -0.511000000    -0.391000000
H     2.818000000    -0.731000000    -1.514000000
O     2.346000000     0.194000000     4.755000000
H     2.370000000     0.268000000     5.709000000
H     3.263000000     0.101000000     4.498000000
O     5.394000000     2.046000000     0.504000000
H     5.121000000     1.131000000     0.435000000
H     5.605000000     2.302000000    -0.393000000
O    -1.682000000    -0.487000000    -5.133000000
H    -1.101000000    -0.368000000    -5.883000000
H    -1.635000000    -1.423000000    -4.939000000
O     0.049000000     6.507000000    -1.055000000
H     0.349000000     5.986000000    -0.310000000
H    -0.876000000     6.281000000    -1.149000000
O    -0.266000000    -3.435000000     7.125000000
H     0.146000000    -4.239000000     6.810000000
H    -0.022000000    -2.772000000     6.479000000
O    -0.837000000    -3.118000000    -4.686000000
H    -0.801000000    -2.980000000    -3.740000000
H     0.042000000    -2.895000000    -4.994000000
O     5.427000000     4.497000000    -1.915000000
H     4.558000000     4.482000000    -1.515000000
H     5.478000000     5.351000000    -2.345000000
O     3.963000000    -1.135000000    -4.564000000
H     3.851000000    -0.472000000    -3.883000000
H     4.900000000    -1.121000000    -4.761000000
O     3.969000000     6.728000000     0.523000000
H     4.048000000     6.241000000     1.344000000
H     3.553000000     6.112000000    -0.081000000
O     0.356000000    -2.975000000    -2.268000000
H     0.067000000    -3.494000000    -1.517000000
H     1.084000000    -2.452000000    -1.931000000
O    -0.298000000    -6.522000000    -1.697000000
H    -0.690000000    -6.067000000    -0.952000000
H    -1.031000000    -6.976000000    -2.113000000
O    -2.836000000     2.624000000    -3.557000000
H    -3.614000000     2.795000000    -4.087000000
H    -3.177000000     2.446000000    -2.681000000
O     0.651000000    -1.968000000     5.216000000
H     0.357000000    -2.107000000     4.316000000
H     1.205000000    -1.188000000     5.169000000
O    -2.153000000     5.730000000    -2.503000000
H    -2.112000000     4.843000000    -2.861000000
H    -2.889000000     5.708000000    -1.892000000
O     6.534000000     2.101000000    -2.609000000
H     6.118000000     1.830000000    -3.427000000
H     6.299000000     3.024000000    -2.515000000
O    -6.268000000    -4.085000000     3.678000000
H    -6.565000000    -4.974000000     3.479000000
H    -6.158000000    -3.672000000     2.821000000
O     5.877000000     3.302000000     2.634000000
H     6.155000000     4.111000000     2.204000000
H     5.663000000     2.709000000     1.914000000
O    -5.059000000    -0.082000000    -1.998000000
H    -5.770000000    -0.435000000    -1.464000000
H    -4.904000000     0.793000000    -1.642000000
O     1.339000000    -5.825000000     2.450000000
H     1.938000000    -6.545000000     2.649000000
H     1.764000000    -5.350000000     1.736000000
O    -1.108000000    -5.268000000     0.615000000
H    -0.469000000    -5.598000000     1.247000000
H    -1.345000000    -4.401000000     0.944000000
O     3.172000000     4.036000000    -5.419000000
H     3.519000000     4.891000000    -5.671000000
H     2.617000000     3.776000000    -6.155000000
O    -0.351000000     1.803000000    -4.272000000
H    -1.206000000     2.174000000    -4.056000000
H    -0.489000000     0.856000000    -4.254000000
O     1.063000000     4.708000000     1.036000000
H     0.627000000     3.906000000     1.324000000
H     1.691000000     4.902000000     1.732000000
O    -2.885000000    -5.418000000    -3.332000000
H    -3.000000000    -5.231000000    -2.401000000
H    -2.740000000    -4.561000000    -3.733000000
O     3.748000000     5.198000000     2.722000000
H     4.143000000     4.351000000     2.518000000
H     3.311000000     5.062000000     3.563000000
