158
-3037.71929
C    -0.382000000    -1.417000000    -0.146000000
H    -0.792000000    -2.415000000    -0.274000000
C    -0.914000000    -0.309000000    -0.812000000
H    -1.709000000    -0.517000000    -1.523000000
C    -0.435000000     1.007000000    -0.621000000
H    -0.918000000     1.867000000    -1.099000000
C     0.525000000     1.197000000     0.331000000
H     0.829000000     2.211000000     0.579000000
C     1.141000000     0.110000000     0.954000000
H     1.955000000     0.299000000     1.649000000
C     0.678000000    -1.227000000     0.744000000
C     1.205000000    -2.394000000     1.506000000
O     1.018000000    -3.546000000     1.073000000
O     1.805000000    -2.128000000     2.512000000
O     2.435000000     0.110000000    -1.892000000
H     2.898000000     0.948000000    -1.915000000
H     1.740000000     0.238000000    -1.246000000
O     2.401000000     3.264000000    -4.575000000
H     3.031000000     2.546000000    -4.520000000
H     1.731000000     2.949000000    -5.182000000
O     2.121000000     4.868000000    -1.354000000
H     1.203000000     5.132000000    -1.423000000
H     2.524000000     5.194000000    -2.159000000
O     1.399000000     6.295000000     3.951000000
H     1.532000000     6.182000000     4.892000000
H     1.139000000     5.428000000     3.640000000
O    -3.407000000    -4.667000000     0.316000000
H    -2.812000000    -4.788000000    -0.424000000
H    -2.850000000    -4.336000000     1.020000000
O    -4.963000000    -2.083000000     1.561000000
H    -4.162000000    -1.904000000     2.053000000
H    -5.622000000    -2.258000000     2.233000000
O     0.356000000    -4.818000000    -1.467000000
H     0.096000000    -4.036000000    -1.953000000
H     0.699000000    -4.483000000    -0.638000000
O     1.067000000    -5.414000000     2.981000000
H     1.988000000    -5.304000000     3.219000000
H     0.885000000    -4.686000000     2.386000000
O    -1.032000000     6.454000000     1.302000000
H    -0.817000000     6.816000000     2.161000000
H    -1.893000000     6.817000000     1.096000000
O     3.787000000    -0.265000000     5.786000000
H     4.698000000    -0.176000000     5.503000000
H     3.758000000     0.169000000     6.638000000
O     1.111000000    -0.435000000     7.620000000
H     1.437000000    -0.998000000     6.917000000
H     1.898000000    -0.146000000     8.080000000
O    -5.906000000    -4.092000000    -0.083000000
H    -6.292000000    -4.307000000     0.767000000
H    -4.963000000    -4.087000000     0.076000000
O    -0.339000000     6.180000000    -1.525000000
H    -1.091000000     6.286000000    -2.108000000
H    -0.717000000     6.170000000    -0.646000000
O     1.322000000    -1.167000000     4.856000000
H     2.205000000    -0.981000000     5.176000000
H     1.457000000    -1.534000000     3.982000000
O     2.558000000     6.191000000     1.030000000
H     2.440000000     6.109000000     0.084000000
H     2.126000000     5.417000000     1.393000000
O    -2.269000000    -1.854000000     2.883000000
H    -1.876000000    -1.973000000     3.747000000
H    -2.384000000    -2.744000000     2.548000000
O    -6.578000000     1.520000000     1.664000000
H    -6.138000000     0.675000000     1.754000000
H    -5.903000000     2.106000000     1.323000000
O    -3.915000000    -2.407000000    -3.023000000
H    -4.562000000    -1.774000000    -2.714000000
H    -4.395000000    -3.233000000    -3.081000000
O    -3.240000000     0.563000000     3.923000000
H    -2.948000000     1.156000000     3.231000000
H    -2.839000000    -0.278000000     3.704000000
O    -3.360000000     3.789000000    -5.827000000
H    -2.949000000     2.949000000    -5.622000000
H    -3.864000000     3.620000000    -6.624000000
O    -4.988000000    -1.314000000    -6.062000000
H    -4.539000000    -1.672000000    -6.828000000
H    -4.306000000    -0.849000000    -5.579000000
O    -3.800000000     1.381000000    -1.783000000
H    -3.786000000     2.333000000    -1.679000000
H    -3.327000000     1.050000000    -1.020000000
O    -5.150000000     6.357000000    -2.427000000
H    -5.067000000     5.746000000    -1.695000000
H    -5.410000000     5.809000000    -3.167000000
O     0.063000000     2.863000000    -6.008000000
H    -0.138000000     2.527000000    -5.135000000
H    -0.521000000     2.378000000    -6.592000000
O     1.187000000    -1.541000000    -3.778000000
H     1.643000000    -0.863000000    -3.281000000
H     0.524000000    -1.876000000    -3.175000000
O    -1.421000000    -1.698000000     5.348000000
H    -1.400000000    -2.619000000     5.609000000
H    -0.577000000    -1.349000000     5.637000000
O     3.441000000     2.517000000    -1.465000000
H     3.933000000     2.392000000    -0.653000000
H     2.999000000     3.358000000    -1.350000000
O    -6.973000000    -0.126000000    -1.301000000
H    -6.653000000     0.749000000    -1.083000000
H    -6.723000000    -0.252000000    -2.217000000
O    -1.219000000    -2.689000000    -3.032000000
H    -1.118000000    -2.527000000    -3.970000000
H    -2.164000000    -2.641000000    -2.881000000
O    -1.150000000    -7.562000000    -0.726000000
H    -0.963000000    -7.752000000     0.193000000
H    -0.712000000    -6.728000000    -0.892000000
O     4.560000000     2.384000000     1.148000000
H     4.585000000     1.619000000     1.724000000
H     4.319000000     3.109000000     1.724000000
O    -1.564000000    -2.327000000    -5.898000000
H    -2.254000000    -2.985000000    -5.974000000
H    -0.778000000    -2.764000000    -6.226000000
O    -2.713000000     1.135000000    -6.573000000
H    -2.218000000     0.554000000    -7.150000000
H    -2.807000000     0.641000000    -5.759000000
O     0.991000000     3.861000000     2.980000000
H     1.020000000     3.086000000     3.542000000
H     0.200000000     3.746000000     2.454000000
O     4.636000000    -0.206000000     2.801000000
H     3.880000000    -0.740000000     3.046000000
H     5.295000000    -0.404000000     3.467000000
O     4.097000000    -2.811000000    -1.557000000
H     4.283000000    -2.925000000    -2.489000000
H     3.461000000    -2.097000000    -1.525000000
O    -3.449000000     0.096000000    -4.221000000
H    -3.575000000     0.639000000    -3.443000000
H    -3.293000000    -0.783000000    -3.877000000
O     1.710000000     1.709000000     4.320000000
H     1.524000000     0.804000000     4.571000000
H     2.665000000     1.773000000     4.343000000
O     3.850000000     3.861000000     3.444000000
H     3.022000000     4.274000000     3.688000000
H     4.139000000     3.415000000     4.239000000
O     2.988000000     5.713000000    -3.755000000
H     2.705000000     4.868000000    -4.105000000
H     3.890000000     5.810000000    -4.060000000
O    -0.208000000    -4.065000000     5.346000000
H     0.454000000    -4.067000000     4.654000000
H     0.222000000    -4.484000000     6.091000000
O    -3.239000000     0.605000000     0.882000000
H    -3.815000000    -0.113000000     1.147000000
H    -2.395000000     0.186000000     0.716000000
O     0.477000000    -0.218000000    -6.094000000
H     0.947000000    -0.832000000    -5.531000000
H    -0.430000000    -0.525000000    -6.079000000
O    -1.368000000    -4.191000000     1.965000000
H    -1.093000000    -5.026000000     2.346000000
H    -0.566000000    -3.820000000     1.597000000
O     3.564000000    -3.921000000     3.023000000
H     4.001000000    -4.073000000     2.185000000
H     2.974000000    -3.186000000     2.855000000
O     5.063000000    -4.724000000     0.410000000
H     4.555000000    -4.167000000    -0.180000000
H     5.273000000    -5.498000000    -0.112000000
O    -4.785000000     4.230000000    -0.510000000
H    -3.985000000     4.699000000    -0.272000000
H    -5.428000000     4.505000000     0.143000000
O    -0.319000000    -7.366000000     2.042000000
H     0.238000000    -6.742000000     2.506000000
H    -0.148000000    -8.205000000     2.470000000
