158
-3052.19157
C    -0.225000000    -1.077000000    -1.015000000
H    -0.423000000    -1.852000000    -1.752000000
C    -0.510000000     0.294000000    -1.180000000
H    -0.837000000     0.678000000    -2.143000000
C    -0.314000000     1.159000000    -0.161000000
H    -0.462000000     2.221000000    -0.297000000
C     0.200000000     0.732000000     1.063000000
H     0.431000000     1.466000000     1.830000000
C     0.570000000    -0.592000000     1.225000000
H     0.890000000    -0.909000000     2.214000000
C     0.271000000    -1.527000000     0.247000000
C     0.543000000    -2.973000000     0.487000000
O     0.660000000    -3.721000000    -0.473000000
O     0.721000000    -3.431000000     1.633000000
O     2.571000000    -1.656000000    -3.567000000
H     2.780000000    -1.052000000    -2.854000000
H     2.788000000    -1.172000000    -4.363000000
O     1.028000000     4.042000000    -5.143000000
H     0.263000000     4.605000000    -5.256000000
H     0.762000000     3.406000000    -4.479000000
O     3.043000000     0.201000000    -5.448000000
H     2.400000000     0.846000000    -5.154000000
H     3.794000000     0.723000000    -5.731000000
O     5.069000000    -3.829000000    -0.703000000
H     4.199000000    -4.000000000    -1.064000000
H     5.478000000    -4.692000000    -0.642000000
O     3.558000000     3.165000000    -2.588000000
H     2.794000000     2.686000000    -2.910000000
H     3.851000000     3.682000000    -3.338000000
O    -0.370000000    -4.857000000    -2.954000000
H    -1.031000000    -5.441000000    -2.584000000
H     0.060000000    -4.468000000    -2.193000000
O    -1.248000000     7.296000000     1.433000000
H    -1.969000000     7.335000000     0.804000000
H    -0.517000000     6.929000000     0.937000000
O     0.879000000    -5.789000000     3.980000000
H     1.815000000    -5.910000000     4.137000000
H     0.837000000    -5.257000000     3.185000000
O    -2.912000000    -3.938000000     5.624000000
H    -2.420000000    -3.888000000     4.804000000
H    -3.746000000    -3.511000000     5.429000000
O    -0.402000000    -2.153000000     6.024000000
H    -0.929000000    -2.902000000     6.303000000
H    -0.121000000    -1.740000000     6.841000000
O    -1.871000000     3.025000000     1.971000000
H    -2.774000000     3.321000000     1.859000000
H    -1.950000000     2.167000000     2.387000000
O     0.947000000     2.018000000    -3.505000000
H     0.357000000     1.542000000    -4.089000000
H     0.655000000     1.782000000    -2.624000000
O     2.705000000    -2.872000000     3.093000000
H     3.054000000    -3.734000000     3.321000000
H     1.916000000    -3.061000000     2.584000000
O     3.681000000     4.967000000    -0.214000000
H     3.758000000     4.311000000    -0.906000000
H     4.537000000     5.396000000    -0.195000000
O    -5.617000000     1.307000000     1.065000000
H    -5.933000000     1.125000000     0.180000000
H    -4.663000000     1.296000000     0.986000000
O    -3.200000000     0.032000000     0.680000000
H    -3.346000000    -0.914000000     0.678000000
H    -2.289000000     0.134000000     0.405000000
O    -2.818000000    -6.155000000    -2.381000000
H    -3.338000000    -6.686000000    -1.778000000
H    -3.131000000    -5.261000000    -2.243000000
O     3.050000000     0.888000000     2.689000000
H     3.035000000     1.830000000     2.518000000
H     2.383000000     0.757000000     3.363000000
O    -2.849000000    -2.670000000     1.281000000
H    -2.240000000    -2.921000000     1.976000000
H    -3.714000000    -2.882000000     1.632000000
O     0.322000000     6.092000000    -2.456000000
H    -0.365000000     6.261000000    -3.101000000
H     1.137000000     6.284000000    -2.919000000
O    -2.108000000     0.457000000     3.299000000
H    -2.244000000     0.058000000     2.440000000
H    -1.321000000     0.032000000     3.639000000
O     1.517000000    -3.842000000    -4.883000000
H     1.813000000    -3.131000000    -4.315000000
H     0.998000000    -4.407000000    -4.310000000
O    -1.130000000    -3.067000000     3.323000000
H    -0.591000000    -2.695000000     4.020000000
H    -0.505000000    -3.307000000     2.639000000
O     2.778000000    -0.128000000    -1.310000000
H     2.871000000     0.807000000    -1.125000000
H     2.346000000    -0.483000000    -0.533000000
O     4.041000000    -5.272000000     3.264000000
H     4.088000000    -5.550000000     2.349000000
H     4.489000000    -5.966000000     3.748000000
O     0.407000000     2.737000000     6.476000000
H     0.483000000     2.130000000     5.741000000
H    -0.067000000     2.244000000     7.146000000
O    -4.491000000     3.884000000     1.601000000
H    -5.329000000     3.431000000     1.689000000
H    -4.330000000     4.261000000     2.466000000
O     5.279000000    -0.392000000     1.497000000
H     5.316000000    -1.349000000     1.489000000
H     4.454000000    -0.188000000     1.937000000
O     1.161000000     6.619000000     0.004000000
H     2.040000000     6.246000000     0.073000000
H     0.783000000     6.200000000    -0.769000000
O    -3.309000000    -3.543000000    -1.223000000
H    -3.857000000    -2.782000000    -1.413000000
H    -2.947000000    -3.368000000    -0.354000000
O    -0.130000000    -2.136000000    -6.390000000
H     0.442000000    -2.805000000    -6.014000000
H    -0.978000000    -2.282000000    -5.970000000
O    -3.756000000     4.399000000    -0.943000000
H    -4.041000000     4.274000000    -0.038000000
H    -3.565000000     5.335000000    -1.008000000
O     3.352000000    -7.390000000     1.169000000
H     2.545000000    -6.916000000     0.967000000
H     3.139000000    -8.308000000     1.002000000
O    -4.067000000    -0.056000000    -3.625000000
H    -3.546000000     0.737000000    -3.495000000
H    -3.632000000    -0.513000000    -4.345000000
O     2.740000000    -4.236000000    -2.286000000
H     2.100000000    -4.201000000    -1.575000000
H     2.849000000    -3.324000000    -2.556000000
O     1.789000000    -7.843000000    -2.140000000
H     1.511000000    -7.302000000    -1.401000000
H     1.046000000    -7.824000000    -2.744000000
O    -2.707000000    -1.692000000    -5.532000000
H    -3.436000000    -1.738000000    -6.150000000
H    -2.775000000    -2.499000000    -5.021000000
O     4.843000000    -2.191000000     4.943000000
H     4.257000000    -2.471000000     4.240000000
H     5.310000000    -2.987000000     5.196000000
O     1.260000000    -0.086000000     4.827000000
H     0.705000000    -0.830000000     5.062000000
H     2.083000000    -0.245000000     5.289000000
O     2.792000000     3.623000000     1.962000000
H     3.089000000     4.203000000     1.260000000
H     3.164000000     4.001000000     2.758000000
O    -4.731000000    -1.246000000    -1.371000000
H    -4.484000000    -0.837000000    -2.200000000
H    -4.607000000    -0.558000000    -0.717000000
O    -1.935000000    -6.612000000     3.684000000
H    -2.243000000    -7.112000000     4.440000000
H    -1.003000000    -6.472000000     3.853000000
O     1.085000000    -6.449000000     0.226000000
H     0.270000000    -6.935000000     0.351000000
H     0.834000000    -5.530000000     0.323000000
O    -5.450000000     4.068000000    -2.980000000
H    -5.471000000     3.153000000    -3.260000000
H    -4.732000000     4.109000000    -2.349000000
O    -2.789000000     2.614000000    -3.016000000
H    -3.184000000     3.035000000    -2.252000000
H    -2.160000000     3.255000000    -3.345000000
O    -1.304000000    -7.779000000     0.740000000
H    -1.445000000    -7.205000000     1.492000000
H    -1.677000000    -8.619000000     1.007000000
O    -0.746000000     0.600000000    -5.447000000
H    -0.469000000    -0.254000000    -5.779000000
H    -1.562000000     0.785000000    -5.913000000
O     0.244000000     4.062000000     3.208000000
H     1.008000000     3.973000000     2.638000000
H    -0.487000000     3.736000000     2.682000000
