158
-3041.01696
C     0.530000000    -1.097000000    -0.899000000
H     0.934000000    -1.712000000    -1.699000000
C    -0.595000000    -0.273000000    -1.166000000
H    -1.163000000    -0.284000000    -2.092000000
C    -0.933000000     0.690000000    -0.234000000
H    -1.662000000     1.400000000    -0.551000000
C    -0.357000000     0.783000000     1.056000000
H    -0.776000000     1.497000000     1.761000000
C     0.815000000     0.012000000     1.319000000
H     1.284000000     0.031000000     2.299000000
C     1.248000000    -0.940000000     0.337000000
C     2.443000000    -1.788000000     0.614000000
O     2.779000000    -2.697000000    -0.139000000
O     3.113000000    -1.467000000     1.601000000
O     5.102000000     0.145000000     1.526000000
H     5.763000000    -0.302000000     2.055000000
H     4.336000000    -0.427000000     1.567000000
O    -0.506000000     2.659000000    -4.315000000
H    -0.233000000     3.249000000    -3.613000000
H    -1.246000000     2.176000000    -3.947000000
O     1.071000000    -3.013000000    -5.433000000
H     0.164000000    -3.314000000    -5.367000000
H     1.513000000    -3.419000000    -4.688000000
O    -2.412000000     3.865000000     2.076000000
H    -2.682000000     4.766000000     1.901000000
H    -1.490000000     3.837000000     1.819000000
O     7.942000000    -1.874000000     1.129000000
H     7.051000000    -1.982000000     1.461000000
H     8.002000000    -0.946000000     0.900000000
O     6.670000000     2.184000000     3.481000000
H     7.196000000     1.483000000     3.866000000
H     6.094000000     1.738000000     2.860000000
O    -3.416000000     2.222000000    -3.641000000
H    -3.379000000     3.128000000    -3.335000000
H    -3.726000000     1.726000000    -2.883000000
O     4.407000000    -7.451000000    -0.862000000
H     4.345000000    -8.234000000    -0.315000000
H     4.119000000    -6.738000000    -0.292000000
O    -4.021000000    -0.195000000     3.955000000
H    -3.122000000    -0.351000000     3.665000000
H    -4.460000000    -1.037000000     3.837000000
O     4.043000000    -1.684000000    -2.956000000
H     4.299000000    -1.216000000    -2.161000000
H     3.522000000    -2.423000000    -2.642000000
O     5.119000000    -4.620000000    -1.983000000
H     5.005000000    -5.095000000    -1.160000000
H     5.723000000    -3.910000000    -1.769000000
O     0.773000000    -4.160000000    -1.307000000
H     1.360000000    -4.668000000    -1.867000000
H     1.321000000    -3.456000000    -0.960000000
O     3.273000000     2.574000000     1.493000000
H     3.900000000     1.865000000     1.635000000
H     2.813000000     2.657000000     2.328000000
O    -1.822000000     0.487000000    -7.027000000
H    -2.493000000    -0.076000000    -6.642000000
H    -1.833000000     1.277000000    -6.486000000
O    -4.466000000     2.676000000     3.116000000
H    -3.745000000     3.080000000     2.632000000
H    -4.249000000     1.744000000     3.134000000
O    -5.280000000     2.603000000    -0.598000000
H    -5.838000000     2.099000000    -1.191000000
H    -5.835000000     2.777000000     0.162000000
O    -1.470000000    -4.929000000     0.067000000
H    -1.999000000    -4.254000000    -0.360000000
H    -0.576000000    -4.752000000    -0.224000000
O    -7.281000000    -1.164000000     0.690000000
H    -8.085000000    -1.437000000     1.133000000
H    -6.602000000    -1.236000000     1.361000000
O     5.033000000     0.560000000    -1.220000000
H     5.165000000     0.323000000    -0.302000000
H     5.310000000     1.475000000    -1.273000000
O     0.022000000     0.083000000     5.463000000
H    -0.617000000     0.795000000     5.450000000
H     0.423000000     0.137000000     6.331000000
O     0.538000000     4.824000000     4.722000000
H     0.977000000     4.080000000     4.311000000
H     1.251000000     5.391000000     5.016000000
O    -4.407000000     5.542000000     0.728000000
H    -3.907000000     6.295000000     0.413000000
H    -5.258000000     5.622000000     0.297000000
O    -3.259000000     3.989000000    -1.639000000
H    -3.267000000     4.803000000    -1.136000000
H    -3.932000000     3.447000000    -1.227000000
O     2.108000000     4.248000000    -2.188000000
H     2.293000000     3.341000000    -1.942000000
H     1.153000000     4.304000000    -2.193000000
O    -0.675000000     3.537000000    -1.700000000
H    -0.383000000     3.467000000    -0.791000000
H    -1.612000000     3.721000000    -1.638000000
O    -2.696000000    -1.559000000     0.813000000
H    -2.206000000    -1.692000000     1.624000000
H    -2.086000000    -1.097000000     0.237000000
O     5.946000000    -5.584000000     2.410000000
H     5.284000000    -5.363000000     3.066000000
H     5.553000000    -5.327000000     1.576000000
O     2.381000000    -2.411000000     4.111000000
H     2.696000000    -2.071000000     3.274000000
H     2.281000000    -1.635000000     4.663000000
O     2.258000000     1.628000000    -1.557000000
H     1.408000000     1.406000000    -1.177000000
H     2.875000000     1.035000000    -1.127000000
O    -3.975000000     2.368000000    -6.441000000
H    -3.815000000     2.227000000    -5.508000000
H    -4.880000000     2.678000000    -6.485000000
O    -3.837000000    -0.013000000    -1.663000000
H    -3.751000000    -0.841000000    -2.136000000
H    -3.529000000    -0.210000000    -0.779000000
O     3.088000000    -4.361000000    -3.802000000
H     3.908000000    -4.417000000    -3.313000000
H     2.845000000    -5.272000000    -3.968000000
O    -6.745000000     3.332000000     1.537000000
H    -6.088000000     3.127000000     2.202000000
H    -7.416000000     2.658000000     1.647000000
O     0.073000000     3.889000000     0.944000000
H     0.574000000     4.688000000     0.781000000
H     0.698000000     3.296000000     1.361000000
O     3.557000000     1.335000000     5.326000000
H     4.123000000     0.575000000     5.461000000
H     4.155000000     2.082000000     5.326000000
O    -1.590000000    -3.786000000    -5.074000000
H    -2.278000000    -3.899000000    -5.730000000
H    -1.790000000    -4.439000000    -4.403000000
O     1.209000000    -5.756000000     1.910000000
H     1.233000000    -6.559000000     2.431000000
H     0.357000000    -5.777000000     1.475000000
O     5.526000000    -2.346000000     2.570000000
H     4.714000000    -2.400000000     2.065000000
H     5.338000000    -2.826000000     3.376000000
O    -5.493000000    -0.373000000    -4.293000000
H    -5.036000000     0.032000000    -3.556000000
H    -6.416000000    -0.167000000    -4.146000000
O    -2.796000000     7.224000000    -0.830000000
H    -1.912000000     7.424000000    -0.523000000
H    -2.694000000     7.068000000    -1.769000000
O     1.557000000     2.275000000     3.848000000
H     0.820000000     1.679000000     3.984000000
H     2.303000000     1.831000000     4.251000000
O    -1.701000000    -1.823000000     3.468000000
H    -1.513000000    -2.735000000     3.689000000
H    -1.182000000    -1.314000000     4.091000000
O     2.937000000     0.634000000    -4.178000000
H     3.292000000    -0.242000000    -4.024000000
H     2.618000000     0.917000000    -3.321000000
O    -1.973000000     1.999000000     5.790000000
H    -2.310000000     2.745000000     5.296000000
H    -2.750000000     1.487000000     6.012000000
O     4.054000000    -4.429000000     4.152000000
H     4.085000000    -4.704000000     5.068000000
H     3.431000000    -3.703000000     4.140000000
O    -3.248000000    -2.273000000    -3.319000000
H    -2.357000000    -2.382000000    -3.650000000
H    -3.654000000    -3.132000000    -3.435000000
O     0.107000000    -4.156000000     4.492000000
H    -0.104000000    -4.988000000     4.068000000
H     0.913000000    -3.866000000     4.063000000
O     4.001000000    -4.875000000     0.716000000
H     3.343000000    -4.836000000     1.410000000
H     3.750000000    -4.179000000     0.109000000
