158
-3027.97672
C     0.230000000    -0.085000000    -1.361000000
H     0.385000000    -0.223000000    -2.428000000
C    -0.978000000    -0.406000000    -0.742000000
H    -1.876000000    -0.498000000    -1.346000000
C    -1.002000000    -0.359000000     0.637000000
H    -1.865000000    -0.705000000     1.126000000
C     0.089000000     0.073000000     1.339000000
H     0.064000000     0.073000000     2.425000000
C     1.270000000     0.443000000     0.737000000
H     2.146000000     0.746000000     1.305000000
C     1.366000000     0.376000000    -0.721000000
C     2.619000000     0.801000000    -1.517000000
O     2.573000000     0.688000000    -2.761000000
O     3.586000000     1.231000000    -1.022000000
O    -3.487000000    -0.503000000     3.846000000
H    -3.945000000    -0.851000000     3.081000000
H    -2.778000000     0.026000000     3.481000000
O     4.800000000     2.289000000     0.982000000
H     5.669000000     2.456000000     0.618000000
H     4.332000000     1.830000000     0.284000000
O    -0.015000000     0.814000000    -5.911000000
H     0.438000000     1.340000000    -5.252000000
H    -0.837000000     0.561000000    -5.492000000
O    -3.598000000     3.649000000     3.820000000
H    -2.838000000     3.829000000     4.375000000
H    -3.479000000     4.217000000     3.059000000
O    -2.398000000     2.923000000    -3.482000000
H    -3.101000000     2.785000000    -2.847000000
H    -2.277000000     2.067000000    -3.894000000
O     2.300000000     4.607000000    -5.411000000
H     1.853000000     3.948000000    -4.879000000
H     1.629000000     4.919000000    -6.019000000
O    -3.517000000    -3.677000000    -1.255000000
H    -3.399000000    -3.631000000    -2.204000000
H    -4.348000000    -3.230000000    -1.095000000
O    -4.691000000    -1.250000000     1.546000000
H    -5.631000000    -1.372000000     1.679000000
H    -4.499000000    -1.730000000     0.740000000
O     7.056000000    -0.989000000    -5.103000000
H     7.028000000    -0.262000000    -5.725000000
H     6.327000000    -0.822000000    -4.505000000
O     1.827000000    -1.013000000    -7.229000000
H     1.362000000    -0.338000000    -6.734000000
H     1.153000000    -1.659000000    -7.442000000
O     4.418000000     2.874000000    -3.216000000
H     3.913000000     3.548000000    -2.761000000
H     3.882000000     2.084000000    -3.145000000
O     5.897000000    -3.060000000    -2.522000000
H     5.603000000    -2.588000000    -1.743000000
H     6.003000000    -3.965000000    -2.228000000
O    -2.953000000     5.065000000     1.522000000
H    -2.233000000     4.508000000     1.226000000
H    -3.729000000     4.702000000     1.095000000
O     2.579000000    -3.090000000    -2.236000000
H     2.639000000    -3.372000000    -1.323000000
H     2.453000000    -2.143000000    -2.186000000
O     0.507000000     3.128000000     2.464000000
H     1.382000000     2.741000000     2.468000000
H     0.002000000     2.585000000     3.069000000
O    -2.708000000     0.556000000    -4.904000000
H    -2.472000000    -0.335000000    -5.163000000
H    -3.078000000     0.946000000    -5.695000000
O    -7.502000000    -1.085000000     1.997000000
H    -7.039000000    -0.251000000     2.072000000
H    -8.429000000    -0.848000000     2.023000000
O     4.336000000     2.562000000     5.814000000
H     4.153000000     2.457000000     4.880000000
H     3.865000000     1.840000000     6.232000000
O    -4.342000000     1.570000000     1.326000000
H    -4.458000000     1.811000000     2.245000000
H    -4.310000000     0.614000000     1.331000000
O    -0.665000000    -5.222000000    -1.202000000
H    -1.146000000    -5.137000000    -0.379000000
H    -0.554000000    -6.166000000    -1.318000000
O     0.824000000    -2.754000000     0.157000000
H     0.200000000    -3.211000000    -0.406000000
H     0.443000000    -1.885000000     0.281000000
O    -5.905000000    -2.628000000    -0.652000000
H    -6.600000000    -2.902000000    -0.054000000
H    -6.325000000    -1.993000000    -1.232000000
O     0.244000000    -4.850000000     1.884000000
H    -0.668000000    -4.558000000     1.858000000
H     0.738000000    -4.126000000     1.498000000
O     8.540000000     2.774000000    -2.181000000
H     7.892000000     2.076000000    -2.085000000
H     9.019000000     2.547000000    -2.978000000
O    -0.933000000     1.785000000     4.473000000
H    -1.519000000     2.461000000     4.813000000
H    -0.341000000     1.593000000     5.200000000
O    -4.192000000     2.529000000    -1.321000000
H    -4.186000000     2.149000000    -0.442000000
H    -4.532000000     3.415000000    -1.196000000
O    -0.911000000     3.854000000     0.113000000
H    -1.137000000     3.063000000    -0.375000000
H    -0.560000000     3.531000000     0.943000000
O     0.326000000     0.770000000     6.867000000
H    -0.444000000     1.207000000     7.230000000
H     0.013000000    -0.100000000     6.619000000
O    -2.208000000    -2.061000000    -5.253000000
H    -1.626000000    -2.419000000    -4.583000000
H    -2.839000000    -2.760000000    -5.420000000
O    -2.130000000    -3.889000000     0.961000000
H    -2.801000000    -4.102000000     1.610000000
H    -2.624000000    -3.652000000     0.176000000
O     3.795000000    -0.704000000     3.855000000
H     3.834000000    -1.188000000     3.030000000
H     3.463000000    -1.338000000     4.490000000
O     3.094000000     4.780000000    -2.104000000
H     2.665000000     5.624000000    -1.958000000
H     3.407000000     4.518000000    -1.238000000
O    -4.621000000     0.355000000    -2.900000000
H    -4.474000000     1.079000000    -2.292000000
H    -3.800000000     0.280000000    -3.386000000
O     4.879000000    -0.636000000    -3.549000000
H     4.052000000    -0.259000000    -3.247000000
H     4.860000000    -1.539000000    -3.233000000
O     4.816000000     3.592000000    -5.765000000
H     4.787000000     3.356000000    -4.837000000
H     4.060000000     4.165000000    -5.890000000
O     6.275000000     1.083000000    -1.323000000
H     5.496000000     1.616000000    -1.163000000
H     6.004000000     0.461000000    -1.999000000
O    -3.668000000    -5.083000000     3.118000000
H    -3.694000000    -5.978000000     2.780000000
H    -4.126000000    -5.130000000     3.957000000
O    -0.437000000    -3.144000000    -3.154000000
H    -0.718000000    -3.802000000    -2.518000000
H     0.498000000    -3.311000000    -3.275000000
O     3.186000000    -2.338000000     1.435000000
H     2.359000000    -2.353000000     0.955000000
H     3.328000000    -3.247000000     1.697000000
O    -4.337000000    -0.171000000     6.352000000
H    -4.019000000    -0.243000000     5.453000000
H    -4.242000000    -1.053000000     6.712000000
O     5.113000000     0.104000000    -7.251000000
H     4.385000000     0.369000000    -6.689000000
H     5.370000000     0.907000000    -7.704000000
O     3.297000000     1.987000000     3.206000000
H     3.331000000     1.048000000     3.388000000
H     3.858000000     2.102000000     2.439000000
O    -2.387000000    -3.102000000     4.503000000
H    -2.609000000    -3.676000000     3.770000000
H    -2.468000000    -2.217000000     4.149000000
O     1.186000000     2.576000000    -3.981000000
H     1.548000000     1.758000000    -3.640000000
H     1.338000000     3.215000000    -3.284000000
O     2.919000000     0.134000000     6.618000000
H     2.844000000    -0.377000000     5.812000000
H     2.038000000     0.476000000     6.767000000
O     4.934000000    -1.687000000    -0.346000000
H     4.326000000    -1.718000000     0.392000000
H     5.179000000    -0.765000000    -0.417000000
O    -0.544000000    -2.282000000     6.502000000
H     0.068000000    -3.013000000     6.415000000
H    -1.218000000    -2.455000000     5.845000000
O     3.953000000     4.802000000     0.349000000
H     4.305000000     4.015000000     0.765000000
H     3.891000000     5.441000000     1.060000000
