158
-3038.38651
C     0.555000000    -0.095000000    -1.373000000
H     0.898000000    -0.200000000    -2.399000000
C    -0.745000000     0.342000000    -1.087000000
H    -1.335000000     0.671000000    -1.939000000
C    -1.180000000     0.445000000     0.274000000
H    -2.173000000     0.738000000     0.545000000
C    -0.293000000     0.030000000     1.293000000
H    -0.632000000     0.095000000     2.324000000
C     0.971000000    -0.463000000     0.964000000
H     1.580000000    -1.011000000     1.679000000
C     1.453000000    -0.455000000    -0.360000000
C     2.863000000    -1.018000000    -0.674000000
O     3.281000000    -1.027000000    -1.802000000
O     3.609000000    -1.409000000     0.202000000
O    -4.057000000    -1.411000000    -1.615000000
H    -4.885000000    -1.426000000    -1.135000000
H    -4.114000000    -0.631000000    -2.166000000
O     4.097000000    -4.109000000     0.865000000
H     3.177000000    -4.202000000     1.113000000
H     4.175000000    -3.201000000     0.572000000
O     1.376000000    -4.913000000    -4.061000000
H     1.876000000    -4.104000000    -3.949000000
H     0.840000000    -4.975000000    -3.270000000
O    -4.373000000     4.154000000     3.812000000
H    -4.196000000     3.671000000     3.005000000
H    -5.216000000     3.816000000     4.114000000
O     3.789000000    -1.125000000     3.144000000
H     2.970000000    -0.773000000     3.494000000
H     3.627000000    -1.221000000     2.206000000
O    -5.295000000     1.199000000    -0.903000000
H    -4.849000000     1.256000000    -1.748000000
H    -6.132000000     1.641000000    -1.044000000
O    -1.846000000    -2.381000000    -2.779000000
H    -2.495000000    -1.858000000    -2.309000000
H    -1.869000000    -2.044000000    -3.674000000
O    -1.355000000    -5.368000000     1.560000000
H    -1.429000000    -4.632000000     0.953000000
H    -0.764000000    -5.981000000     1.123000000
O     5.885000000     2.369000000    -1.747000000
H     5.977000000     1.732000000    -2.456000000
H     4.958000000     2.604000000    -1.755000000
O     2.959000000     1.418000000    -2.597000000
H     3.302000000     1.422000000    -3.491000000
H     3.010000000     0.502000000    -2.325000000
O     5.840000000    -2.851000000     3.779000000
H     5.296000000    -3.242000000     3.095000000
H     5.285000000    -2.176000000     4.169000000
O     4.586000000    -6.569000000    -1.300000000
H     4.252000000    -5.747000000    -0.941000000
H     4.134000000    -6.666000000    -2.138000000
O    -1.049000000    -2.978000000    -0.119000000
H    -1.032000000    -2.217000000     0.462000000
H    -1.506000000    -2.671000000    -0.903000000
O     5.796000000    -6.069000000     1.655000000
H     6.724000000    -5.864000000     1.769000000
H     5.421000000    -5.275000000     1.272000000
O     7.825000000     0.995000000    -0.236000000
H     7.286000000     0.684000000     0.491000000
H     7.266000000     1.619000000    -0.699000000
O    -1.853000000     4.578000000     5.122000000
H    -2.744000000     4.525000000     4.776000000
H    -1.718000000     3.740000000     5.565000000
O    -3.732000000    -2.460000000     4.801000000
H    -4.564000000    -2.286000000     5.241000000
H    -3.712000000    -3.410000000     4.691000000
O    -4.838000000    -0.581000000     1.391000000
H    -4.743000000     0.126000000     0.753000000
H    -5.756000000    -0.541000000     1.659000000
O     1.782000000    -0.034000000     4.690000000
H     1.736000000     0.330000000     5.574000000
H     1.386000000     0.637000000     4.134000000
O    -1.014000000     3.369000000     2.052000000
H    -1.691000000     2.778000000     1.721000000
H    -1.445000000     3.859000000     2.752000000
O    -1.924000000    -0.430000000     4.633000000
H    -1.242000000    -1.061000000     4.864000000
H    -2.728000000    -0.950000000     4.598000000
O    -0.311000000     1.713000000    -4.535000000
H     0.521000000     1.946000000    -4.124000000
H    -0.864000000     2.485000000    -4.411000000
O    -5.555000000    -3.502000000     1.889000000
H    -5.959000000    -2.644000000     1.762000000
H    -5.302000000    -3.781000000     1.009000000
O     4.146000000     1.729000000    -5.083000000
H     4.999000000     1.322000000    -4.930000000
H     4.300000000     2.664000000    -4.952000000
O     1.631000000    -2.765000000     5.861000000
H     1.906000000    -1.959000000     5.424000000
H     2.400000000    -3.332000000     5.823000000
O     2.650000000     3.520000000    -1.037000000
H     2.765000000     2.758000000    -1.606000000
H     2.679000000     3.162000000    -0.150000000
O     5.948000000    -2.239000000    -1.319000000
H     5.061000000    -1.909000000    -1.175000000
H     5.872000000    -2.800000000    -2.090000000
O     0.691000000     2.409000000     4.157000000
H     0.361000000     2.346000000     5.053000000
H    -0.094000000     2.522000000     3.620000000
O     1.175000000     4.084000000    -3.832000000
H     1.213000000     5.040000000    -3.819000000
H     2.058000000     3.806000000    -3.589000000
O    -1.134000000     2.130000000     6.170000000
H    -1.224000000     1.255000000     6.547000000
H    -0.966000000     2.699000000     6.922000000
O     5.670000000     0.254000000     1.174000000
H     5.601000000    -0.136000000     2.045000000
H     5.249000000    -0.380000000     0.594000000
O    -0.042000000    -5.199000000    -1.753000000
H    -0.981000000    -5.293000000    -1.911000000
H     0.029000000    -4.442000000    -1.171000000
O    -2.685000000     3.478000000    -3.388000000
H    -3.034000000     3.892000000    -4.177000000
H    -2.745000000     4.156000000    -2.715000000
O     4.374000000    -4.187000000    -5.992000000
H     3.631000000    -4.633000000    -6.398000000
H     3.977000000    -3.495000000    -5.462000000
O    -5.137000000     4.709000000    -1.807000000
H    -5.949000000     5.185000000    -1.630000000
H    -4.805000000     5.096000000    -2.617000000
O    -7.220000000     3.778000000     1.947000000
H    -7.760000000     3.002000000     1.797000000
H    -6.469000000     3.664000000     1.365000000
O     8.769000000    -1.486000000    -1.338000000
H     8.730000000    -0.626000000    -0.920000000
H     7.854000000    -1.756000000    -1.417000000
O    -1.826000000     4.701000000    -1.104000000
H    -0.881000000     4.830000000    -1.030000000
H    -2.044000000     4.105000000    -0.388000000
O     2.860000000    -2.411000000    -4.147000000
H     3.041000000    -1.936000000    -3.336000000
H     2.479000000    -1.754000000    -4.730000000
O    -3.180000000     1.555000000     3.063000000
H    -2.616000000     1.450000000     3.828000000
H    -3.491000000     0.670000000     2.872000000
O    -1.637000000    -0.656000000    -4.980000000
H    -0.915000000    -0.028000000    -4.987000000
H    -2.122000000    -0.472000000    -5.785000000
O     2.181000000    -0.065000000    -5.696000000
H     2.832000000     0.604000000    -5.485000000
H     1.746000000     0.263000000    -6.483000000
O     1.978000000    -5.027000000     2.300000000
H     2.599000000    -5.239000000     2.998000000
H     1.118000000    -5.103000000     2.714000000
O    -4.429000000     3.760000000     0.549000000
H    -4.413000000     2.803000000     0.533000000
H    -4.557000000     4.013000000    -0.365000000
O    -3.876000000     0.854000000    -3.352000000
H    -3.675000000     1.788000000    -3.416000000
H    -3.083000000     0.417000000    -3.662000000
O     0.919000000     5.486000000     2.061000000
H     0.577000000     5.580000000     1.172000000
H     0.749000000     4.572000000     2.289000000
O     6.021000000     0.174000000    -3.538000000
H     5.717000000    -0.048000000    -2.658000000
H     6.407000000    -0.636000000    -3.870000000
O     3.034000000     2.647000000     1.432000000
H     2.423000000     1.952000000     1.673000000
H     3.857000000     2.192000000     1.252000000
