158
-3061.72303
C    -0.565000000    -1.354000000    -0.315000000
H    -1.102000000    -2.266000000    -0.564000000
C    -0.854000000    -0.133000000    -0.943000000
H    -1.620000000    -0.161000000    -1.714000000
C    -0.234000000     1.064000000    -0.613000000
H    -0.366000000     1.925000000    -1.185000000
C     0.687000000     1.050000000     0.411000000
H     1.148000000     1.982000000     0.726000000
C     1.093000000    -0.112000000     1.050000000
H     1.840000000     0.005000000     1.831000000
C     0.407000000    -1.370000000     0.698000000
C     0.712000000    -2.600000000     1.383000000
O     0.358000000    -3.651000000     0.908000000
O     1.522000000    -2.623000000     2.346000000
O     4.746000000    -1.691000000    -1.221000000
H     3.981000000    -1.116000000    -1.216000000
H     5.226000000    -1.460000000    -0.426000000
O     2.223000000     2.759000000    -4.486000000
H     2.691000000     2.885000000    -3.661000000
H     2.496000000     1.892000000    -4.787000000
O    -1.648000000     6.674000000     0.614000000
H    -2.194000000     6.630000000     1.399000000
H    -1.446000000     5.760000000     0.412000000
O     5.619000000    -3.415000000     2.640000000
H     5.785000000    -3.502000000     3.579000000
H     5.070000000    -4.168000000     2.423000000
O     0.065000000     5.322000000    -1.959000000
H     0.427000000     5.092000000    -1.104000000
H     0.818000000     5.636000000    -2.461000000
O    -3.023000000    -5.071000000    -2.441000000
H    -2.854000000    -4.136000000    -2.554000000
H    -2.333000000    -5.369000000    -1.849000000
O    -4.490000000    -2.392000000     0.682000000
H    -4.203000000    -1.982000000    -0.134000000
H    -3.713000000    -2.845000000     1.009000000
O     1.707000000    -2.354000000    -3.381000000
H     2.389000000    -3.025000000    -3.349000000
H     1.074000000    -2.687000000    -4.018000000
O    -0.356000000    -6.233000000     0.000000000
H     0.247000000    -6.306000000    -0.740000000
H    -0.128000000    -5.401000000     0.414000000
O    -0.885000000    -1.595000000     6.325000000
H    -1.070000000    -1.943000000     5.453000000
H    -0.388000000    -2.289000000     6.759000000
O     3.473000000    -0.287000000     4.846000000
H     4.180000000    -0.423000000     4.215000000
H     3.909000000     0.068000000     5.620000000
O    -0.522000000     4.510000000     3.252000000
H    -0.733000000     5.416000000     3.026000000
H    -1.366000000     4.114000000     3.466000000
O    -2.809000000     3.920000000    -1.239000000
H    -3.207000000     3.366000000    -1.911000000
H    -2.359000000     4.606000000    -1.730000000
O     2.014000000    -2.648000000     5.063000000
H     2.413000000    -1.800000000     5.257000000
H     1.845000000    -2.624000000     4.121000000
O     4.093000000     2.140000000    -2.670000000
H     4.846000000     2.004000000    -3.245000000
H     3.702000000     1.271000000    -2.576000000
O     0.837000000     4.871000000     0.689000000
H     1.696000000     4.515000000     0.462000000
H     0.569000000     4.375000000     1.462000000
O    -2.902000000     1.809000000     0.517000000
H    -2.710000000     2.560000000    -0.044000000
H    -2.360000000     1.945000000     1.294000000
O    -6.094000000     3.329000000    -0.742000000
H    -5.519000000     3.855000000    -0.186000000
H    -6.127000000     2.475000000    -0.312000000
O    -2.566000000    -2.128000000    -3.731000000
H    -3.305000000    -2.279000000    -4.320000000
H    -2.507000000    -1.175000000    -3.659000000
O    -5.396000000     0.816000000     0.882000000
H    -5.405000000    -0.092000000     1.184000000
H    -4.467000000     1.041000000     0.828000000
O    -2.503000000     4.020000000    -5.517000000
H    -2.509000000     4.094000000    -4.563000000
H    -1.833000000     3.362000000    -5.702000000
O    -2.094000000    -6.269000000     3.190000000
H    -1.774000000    -6.283000000     4.091000000
H    -2.778000000    -6.937000000     3.168000000
O     3.323000000     6.702000000     1.462000000
H     3.197000000     5.912000000     0.936000000
H     2.498000000     7.181000000     1.376000000
O    -2.293000000     0.800000000     3.390000000
H    -1.345000000     0.676000000     3.355000000
H    -2.645000000    -0.082000000     3.513000000
O    -4.634000000     2.705000000    -3.128000000
H    -5.044000000     2.711000000    -2.263000000
H    -5.287000000     3.101000000    -3.705000000
O     3.326000000     3.951000000     0.392000000
H     3.608000000     3.154000000     0.841000000
H     3.658000000     3.852000000    -0.501000000
O    -0.520000000     3.060000000    -3.644000000
H     0.184000000     2.671000000    -4.163000000
H    -0.078000000     3.687000000    -3.071000000
O     1.689000000    -4.010000000    -1.240000000
H     1.235000000    -3.766000000    -0.434000000
H     1.668000000    -3.217000000    -1.776000000
O    -1.188000000    -3.179000000     4.173000000
H    -0.314000000    -3.368000000     3.831000000
H    -1.780000000    -3.394000000     3.452000000
O     2.569000000     0.016000000    -1.916000000
H     1.895000000     0.276000000    -1.288000000
H     2.137000000    -0.625000000    -2.480000000
O    -0.248000000    -3.644000000    -4.617000000
H    -0.850000000    -3.476000000    -3.892000000
H    -0.546000000    -3.060000000    -5.315000000
O    -2.541000000    -7.756000000    -0.056000000
H    -1.711000000    -7.293000000    -0.170000000
H    -2.946000000    -7.338000000     0.704000000
O     3.831000000     1.612000000     1.667000000
H     3.408000000     0.756000000     1.599000000
H     3.566000000     1.942000000     2.526000000
O    -1.365000000     1.709000000    -6.328000000
H    -1.665000000     1.358000000    -7.166000000
H    -0.477000000     1.366000000    -6.229000000
O     1.752000000     4.327000000     4.768000000
H     1.643000000     3.699000000     5.483000000
H     1.057000000     4.105000000     4.148000000
O     3.853000000    -1.304000000     1.919000000
H     2.975000000    -1.602000000     2.158000000
H     4.418000000    -2.055000000     2.099000000
O     4.413000000    -4.340000000    -1.423000000
H     3.460000000    -4.248000000    -1.405000000
H     4.741000000    -3.444000000    -1.347000000
O    -2.834000000     0.796000000    -4.044000000
H    -2.039000000     1.214000000    -4.376000000
H    -3.447000000     1.518000000    -3.912000000
O     0.498000000     0.604000000     5.167000000
H    -0.002000000    -0.067000000     5.632000000
H     1.325000000     0.175000000     4.946000000
O     0.967000000    -4.999000000     6.301000000
H     1.782000000    -5.411000000     6.586000000
H     1.220000000    -4.107000000     6.063000000
O     4.092000000     2.681000000     4.106000000
H     3.565000000     3.466000000     4.259000000
H     3.768000000     2.047000000     4.746000000
O    -4.618000000    -0.756000000    -1.624000000
H    -4.920000000    -0.083000000    -1.014000000
H    -4.108000000    -0.277000000    -2.276000000
O    -2.305000000    -3.892000000     1.542000000
H    -2.219000000    -4.698000000     2.051000000
H    -1.423000000    -3.724000000     1.209000000
O     3.011000000    -4.827000000     2.117000000
H     2.865000000    -4.804000000     1.171000000
H     2.315000000    -4.279000000     2.480000000
O     2.126000000    -6.634000000    -1.189000000
H     1.983000000    -5.749000000    -1.524000000
H     1.982000000    -7.203000000    -1.945000000
O    -4.920000000     6.448000000    -2.061000000
H    -4.723000000     5.548000000    -1.803000000
H    -5.308000000     6.842000000    -1.280000000
O     6.552000000     1.129000000     1.098000000
H     5.640000000     1.174000000     1.385000000
H     6.904000000     0.356000000     1.540000000
O    -0.147000000     8.399000000    -1.852000000
H    -0.177000000     7.470000000    -1.624000000
H    -1.019000000     8.588000000    -2.199000000
