158
-3059.95622
C    -0.947000000    -0.712000000    -0.804000000
H    -1.665000000    -1.285000000    -1.385000000
C    -1.047000000    -0.497000000     0.551000000
H    -1.877000000    -0.890000000     1.133000000
C    -0.087000000     0.184000000     1.201000000
H    -0.166000000     0.370000000     2.295000000
C     1.050000000     0.687000000     0.526000000
H     1.882000000     1.202000000     0.999000000
C     1.121000000     0.488000000    -0.910000000
H     1.987000000     0.878000000    -1.439000000
C     0.102000000    -0.183000000    -1.571000000
C     0.149000000    -0.243000000    -3.090000000
O     1.163000000     0.236000000    -3.651000000
O    -0.769000000    -0.739000000    -3.682000000
O     6.294000000     3.550000000    -1.341000000
H     6.200000000     2.598000000    -1.376000000
H     5.451000000     3.885000000    -1.646000000
O     3.486000000     0.724000000    -6.135000000
H     3.837000000     1.156000000    -5.356000000
H     3.666000000    -0.205000000    -5.996000000
O    -2.637000000    -2.033000000    -7.618000000
H    -2.252000000    -2.342000000    -6.798000000
H    -2.143000000    -2.487000000    -8.301000000
O     5.587000000     2.232000000    -4.541000000
H     5.761000000     1.305000000    -4.702000000
H     5.264000000     2.263000000    -3.641000000
O     1.727000000    -2.701000000     3.045000000
H     2.253000000    -3.213000000     3.660000000
H     0.889000000    -2.580000000     3.489000000
O    -3.202000000     0.170000000    -4.532000000
H    -2.412000000    -0.126000000    -4.080000000
H    -2.896000000     0.858000000    -5.123000000
O     3.610000000     2.805000000     5.208000000
H     4.269000000     2.323000000     4.709000000
H     3.200000000     3.384000000     4.566000000
O    -0.060000000    -4.228000000    -1.713000000
H     0.453000000    -3.738000000    -1.071000000
H    -0.616000000    -4.803000000    -1.187000000
O    -0.280000000    -1.664000000     7.744000000
H     0.248000000    -1.776000000     8.534000000
H    -0.277000000    -0.719000000     7.587000000
O    -4.059000000    -4.066000000    -0.727000000
H    -4.284000000    -3.686000000     0.122000000
H    -3.961000000    -5.002000000    -0.552000000
O    -2.863000000     2.149000000    -6.223000000
H    -2.172000000     1.811000000    -6.792000000
H    -3.022000000     3.038000000    -6.542000000
O    -0.932000000     0.734000000    -7.569000000
H    -1.093000000     0.917000000    -8.495000000
H    -0.780000000    -0.210000000    -7.534000000
O    -4.929000000    -1.154000000    -6.032000000
H    -4.402000000    -0.746000000    -5.344000000
H    -4.291000000    -1.441000000    -6.684000000
O    -1.428000000     2.459000000    -0.848000000
H    -1.061000000     1.611000000    -0.597000000
H    -1.703000000     2.340000000    -1.757000000
O    -5.061000000    -0.066000000     1.908000000
H    -4.585000000     0.496000000     2.518000000
H    -4.859000000     0.293000000     1.044000000
O    -0.005000000     2.879000000     4.937000000
H     0.721000000     3.394000000     4.586000000
H    -0.689000000     2.942000000     4.270000000
O     0.398000000    -5.084000000     3.902000000
H     1.036000000    -5.281000000     4.587000000
H    -0.094000000    -4.336000000     4.240000000
O    -3.349000000    -4.026000000     4.339000000
H    -2.600000000    -3.430000000     4.324000000
H    -3.002000000    -4.837000000     4.711000000
O    -3.071000000     2.267000000     6.614000000
H    -2.757000000     1.363000000     6.603000000
H    -2.601000000     2.674000000     7.342000000
O     3.799000000    -1.645000000     1.242000000
H     3.451000000    -1.584000000     0.352000000
H     3.044000000    -1.885000000     1.778000000
O     1.220000000    -0.938000000    -6.368000000
H     0.651000000    -0.407000000    -5.811000000
H     1.396000000    -1.723000000    -5.850000000
O    -4.537000000    -2.848000000     1.631000000
H    -4.189000000    -3.072000000     2.494000000
H    -4.805000000    -1.933000000     1.711000000
O    -1.091000000     2.986000000     2.245000000
H    -0.477000000     2.441000000     1.753000000
H    -0.825000000     3.884000000     2.047000000
O     0.211000000     2.935000000    -4.515000000
H     0.416000000     3.040000000    -5.444000000
H     0.487000000     2.042000000    -4.308000000
O     1.802000000    -2.700000000    -4.280000000
H     2.495000000    -2.762000000    -3.623000000
H     1.185000000    -2.064000000    -3.919000000
O    -3.551000000     1.887000000     3.448000000
H    -4.015000000     2.455000000     4.064000000
H    -3.134000000     2.490000000     2.834000000
O    -0.029000000     0.901000000     6.893000000
H    -0.110000000     1.362000000     6.058000000
H    -0.643000000     1.349000000     7.474000000
O    -5.326000000    -0.059000000    -2.958000000
H    -4.485000000     0.029000000    -3.406000000
H    -5.705000000     0.819000000    -2.984000000
O    -0.786000000    -2.732000000     5.004000000
H    -1.220000000    -1.977000000     4.608000000
H    -0.882000000    -2.596000000     5.947000000
O     5.836000000     0.070000000     0.896000000
H     5.234000000    -0.674000000     0.934000000
H     6.162000000     0.068000000    -0.004000000
O     4.539000000     3.278000000     2.135000000
H     4.983000000     3.153000000     1.296000000
H     5.077000000     2.798000000     2.764000000
O     3.620000000     0.020000000    -2.874000000
H     2.795000000     0.379000000    -3.201000000
H     3.398000000    -0.866000000    -2.586000000
O    -5.417000000    -3.074000000    -2.874000000
H    -4.956000000    -3.237000000    -2.051000000
H    -5.190000000    -2.173000000    -3.101000000
O    -2.744000000    -5.597000000    -3.262000000
H    -3.193000000    -5.856000000    -4.067000000
H    -3.336000000    -4.969000000    -2.849000000
O    -4.141000000     0.307000000    -0.409000000
H    -4.659000000     0.219000000    -1.209000000
H    -3.865000000     1.223000000    -0.402000000
O    -4.070000000     2.943000000     0.617000000
H    -3.195000000     2.583000000     0.474000000
H    -3.916000000     3.783000000     1.050000000
O     0.229000000     4.451000000    -1.842000000
H     0.359000000     4.271000000    -2.773000000
H    -0.246000000     3.688000000    -1.514000000
O     2.891000000     0.797000000     7.243000000
H     3.247000000     1.305000000     6.514000000
H     1.990000000     0.605000000     6.984000000
O     6.109000000     0.835000000    -1.998000000
H     5.339000000     0.447000000    -2.412000000
H     6.838000000     0.281000000    -2.279000000
O    -1.726000000    -2.983000000    -4.961000000
H    -1.377000000    -2.194000000    -4.545000000
H    -1.656000000    -3.659000000    -4.286000000
O    -2.165000000    -0.363000000     4.316000000
H    -2.875000000    -0.495000000     4.943000000
H    -2.399000000     0.442000000     3.854000000
O     1.653000000     2.287000000    -7.021000000
H     0.930000000     1.738000000    -7.326000000
H     2.308000000     1.666000000    -6.704000000
O     4.253000000     4.432000000    -2.925000000
H     4.099000000     5.359000000    -2.741000000
H     3.748000000     4.259000000    -3.720000000
O     1.328000000    -2.606000000     0.343000000
H     1.066000000    -2.815000000     1.239000000
H     0.992000000    -1.722000000     0.195000000
O     3.088000000    -2.762000000    -1.660000000
H     2.428000000    -2.772000000    -0.967000000
H     3.701000000    -3.457000000    -1.418000000
O     1.999000000     3.960000000     2.982000000
H     2.764000000     3.560000000     2.567000000
H     1.618000000     4.512000000     2.299000000
O    -2.371000000     3.114000000    -3.554000000
H    -2.646000000     2.605000000    -4.317000000
H    -1.608000000     3.606000000    -3.857000000
O     5.590000000     1.559000000     3.876000000
H     5.739000000     0.873000000     3.225000000
H     6.454000000     1.726000000     4.251000000
