158
-3045.25568
C    -0.653000000    -0.356000000    -1.321000000
H    -1.152000000    -0.503000000    -2.276000000
C    -1.247000000     0.508000000    -0.363000000
H    -2.247000000     0.920000000    -0.480000000
C    -0.584000000     0.759000000     0.872000000
H    -1.007000000     1.321000000     1.622000000
C     0.644000000     0.059000000     1.056000000
H     1.118000000     0.116000000     2.032000000
C     1.251000000    -0.720000000     0.106000000
H     2.205000000    -1.206000000     0.293000000
C     0.579000000    -0.949000000    -1.076000000
C     1.170000000    -1.992000000    -2.014000000
O     0.563000000    -2.231000000    -3.035000000
O     2.236000000    -2.571000000    -1.740000000
O    -3.233000000    -2.836000000    -2.883000000
H    -2.862000000    -3.598000000    -2.439000000
H    -3.407000000    -2.210000000    -2.180000000
O    -5.112000000     1.801000000    -0.846000000
H    -4.659000000     2.343000000    -0.200000000
H    -4.889000000     2.196000000    -1.689000000
O     1.434000000    -4.121000000     0.634000000
H     0.481000000    -4.104000000     0.543000000
H     1.753000000    -3.581000000    -0.089000000
O    -0.508000000    -4.751000000    -5.778000000
H    -0.353000000    -5.051000000    -6.674000000
H    -0.903000000    -3.885000000    -5.880000000
O    -5.400000000     5.967000000     1.829000000
H    -4.703000000     5.375000000     1.545000000
H    -6.042000000     5.940000000     1.119000000
O     4.196000000     1.195000000     0.099000000
H     4.333000000     0.267000000    -0.092000000
H     3.269000000     1.343000000    -0.086000000
O    -4.082000000    -0.818000000    -0.888000000
H    -4.287000000     0.052000000    -0.547000000
H    -4.099000000    -1.387000000    -0.118000000
O     3.929000000    -0.992000000    -3.497000000
H     3.746000000    -1.612000000    -2.792000000
H     4.857000000    -0.781000000    -3.395000000
O    -4.036000000    -0.531000000    -4.633000000
H    -4.809000000    -0.561000000    -4.070000000
H    -4.389000000    -0.488000000    -5.522000000
O     0.463000000     3.500000000     2.537000000
H     0.468000000     2.862000000     3.250000000
H     1.382000000     3.740000000     2.424000000
O    -0.660000000    -3.389000000     3.447000000
H    -0.784000000    -3.330000000     2.500000000
H    -0.535000000    -2.483000000     3.730000000
O    -1.892000000     5.134000000     4.429000000
H    -2.317000000     4.352000000     4.781000000
H    -1.658000000     4.897000000     3.532000000
O     3.202000000     3.935000000     2.197000000
H     3.629000000     3.138000000     1.883000000
H     3.532000000     4.048000000     3.088000000
O     2.212000000    -6.852000000    -1.498000000
H     1.634000000    -7.221000000    -0.830000000
H     1.721000000    -6.114000000    -1.859000000
O     6.186000000     0.785000000     2.319000000
H     5.406000000     0.763000000     1.764000000
H     6.915000000     0.659000000     1.712000000
O     4.672000000    -3.158000000     1.196000000
H     5.498000000    -3.613000000     1.362000000
H     4.000000000    -3.753000000     1.527000000
O    -1.200000000    -0.412000000    -7.125000000
H    -0.749000000     0.300000000    -6.671000000
H    -1.120000000    -1.161000000    -6.533000000
O     2.699000000    -2.055000000     3.174000000
H     3.428000000    -2.556000000     3.537000000
H     2.998000000    -1.146000000     3.198000000
O     3.605000000     0.401000000     3.785000000
H     4.480000000     0.786000000     3.831000000
H     3.080000000     0.926000000     4.389000000
O    -1.647000000     1.383000000    -4.120000000
H    -2.056000000     0.530000000    -4.265000000
H    -2.156000000     1.775000000    -3.410000000
O    -2.507000000     2.337000000     5.298000000
H    -3.141000000     2.439000000     6.007000000
H    -2.139000000     1.463000000     5.429000000
O    -3.805000000    -1.948000000     1.450000000
H    -4.287000000    -2.546000000     2.021000000
H    -3.893000000    -1.092000000     1.869000000
O     1.193000000     0.593000000    -3.882000000
H     1.493000000    -0.123000000    -4.443000000
H     0.245000000     0.474000000    -3.828000000
O     1.681000000    -4.981000000     3.093000000
H     1.686000000    -4.636000000     2.200000000
H     0.812000000    -4.763000000     3.429000000
O     2.011000000     2.456000000    -1.044000000
H     1.286000000     1.948000000    -0.681000000
H     1.726000000     3.367000000    -0.973000000
O     0.765000000    -4.779000000    -3.217000000
H     0.222000000    -4.776000000    -4.005000000
H     0.893000000    -3.854000000    -3.010000000
O     4.120000000    -4.444000000    -1.717000000
H     3.562000000    -5.194000000    -1.512000000
H     3.523000000    -3.696000000    -1.725000000
O     0.948000000     1.705000000     5.234000000
H     0.168000000     1.434000000     5.719000000
H     1.155000000     2.574000000     5.579000000
O     4.577000000    -1.440000000    -0.644000000
H     4.742000000    -2.116000000     0.013000000
H     3.693000000    -1.625000000    -0.961000000
O    -1.522000000    -6.927000000    -4.636000000
H    -1.175000000    -6.061000000    -4.848000000
H    -0.746000000    -7.478000000    -4.534000000
O     0.591000000    -1.203000000     4.658000000
H     1.285000000    -1.501000000     4.070000000
H     0.640000000    -0.248000000     4.623000000
O     0.514000000     3.192000000    -4.839000000
H     1.132000000     2.994000000    -4.135000000
H    -0.219000000     2.595000000    -4.688000000
O     6.821000000    -1.094000000    -2.789000000
H     6.458000000    -1.466000000    -1.986000000
H     6.623000000    -0.159000000    -2.731000000
O     1.707000000     5.046000000    -1.470000000
H     1.989000000     5.413000000    -0.632000000
H     1.340000000     5.791000000    -1.946000000
O    -1.256000000    -3.428000000     0.532000000
H    -1.903000000    -2.723000000     0.554000000
H    -1.676000000    -4.123000000     0.026000000
O     6.911000000    -4.288000000    -1.357000000
H     7.320000000    -4.682000000    -2.128000000
H     5.990000000    -4.190000000    -1.598000000
O    -1.437000000     4.817000000     1.355000000
H    -1.022000000     5.680000000     1.342000000
H    -0.767000000     4.234000000     1.712000000
O    -1.097000000    -2.230000000    -4.898000000
H    -0.578000000    -2.437000000    -4.120000000
H    -1.941000000    -1.941000000    -4.552000000
O     1.265000000     5.869000000     3.817000000
H     0.642000000     5.162000000     3.647000000
H     1.824000000     5.532000000     4.517000000
O    -4.338000000     0.268000000     2.915000000
H    -5.174000000     0.586000000     3.256000000
H    -3.677000000     0.755000000     3.409000000
O     2.402000000    -2.061000000    -5.447000000
H     1.631000000    -2.427000000    -5.013000000
H     3.005000000    -1.856000000    -4.732000000
O    -6.347000000     2.925000000     2.328000000
H    -5.462000000     3.026000000     1.979000000
H    -6.796000000     3.732000000     2.077000000
O    -3.826000000     3.709000000     0.996000000
H    -4.020000000     4.106000000     0.146000000
H    -2.909000000     3.930000000     1.160000000
O     2.796000000    -5.316000000    -5.302000000
H     2.140000000    -5.499000000    -4.630000000
H     3.305000000    -4.587000000    -4.949000000
O    -1.296000000     0.235000000     6.565000000
H    -1.130000000     0.548000000     7.454000000
H    -1.033000000    -0.685000000     6.582000000
O     3.567000000     1.678000000    -2.934000000
H     3.105000000     0.887000000    -3.213000000
H     3.107000000     1.956000000    -2.142000000
O    -6.043000000    -0.413000000    -2.674000000
H    -5.285000000    -0.624000000    -2.128000000
H    -6.092000000     0.543000000    -2.656000000
O    -4.133000000     2.837000000    -3.320000000
H    -4.619000000     2.880000000    -4.143000000
H    -3.602000000     3.634000000    -3.313000000
