158
-3041.03383
C    -0.251000000    -0.160000000    -1.474000000
H    -0.523000000    -0.268000000    -2.521000000
C    -1.129000000     0.469000000    -0.589000000
H    -2.068000000     0.876000000    -0.956000000
C    -0.829000000     0.393000000     0.762000000
H    -1.650000000     0.656000000     1.414000000
C     0.420000000     0.048000000     1.217000000
H     0.580000000     0.161000000     2.286000000
C     1.365000000    -0.390000000     0.301000000
H     2.336000000    -0.660000000     0.708000000
C     1.014000000    -0.620000000    -1.038000000
C     1.984000000    -1.231000000    -1.992000000
O     1.864000000    -1.085000000    -3.171000000
O     3.062000000    -1.585000000    -1.586000000
O    -1.499000000    -3.702000000    -2.549000000
H    -0.925000000    -4.441000000    -2.346000000
H    -1.657000000    -3.282000000    -1.703000000
O    -0.615000000     2.268000000    -3.423000000
H    -0.398000000     3.199000000    -3.389000000
H     0.203000000     1.840000000    -3.677000000
O     4.350000000    -3.624000000    -0.062000000
H     3.948000000    -3.721000000     0.801000000
H     3.727000000    -3.095000000    -0.560000000
O     2.888000000    -2.715000000    -6.945000000
H     2.825000000    -1.846000000    -7.340000000
H     2.133000000    -2.767000000    -6.358000000
O    -2.656000000     6.393000000     2.367000000
H    -2.612000000     5.545000000     2.807000000
H    -2.199000000     6.257000000     1.537000000
O     6.568000000     1.383000000    -0.070000000
H     6.220000000     0.557000000    -0.406000000
H     5.886000000     2.026000000    -0.262000000
O    -3.352000000     2.250000000    -3.206000000
H    -2.402000000     2.244000000    -3.321000000
H    -3.496000000     2.794000000    -2.432000000
O    -3.372000000    -2.824000000    -4.461000000
H    -2.734000000    -3.146000000    -3.825000000
H    -4.174000000    -2.697000000    -3.953000000
O     4.465000000     1.005000000    -3.180000000
H     5.055000000     0.751000000    -3.889000000
H     3.999000000     0.199000000    -2.956000000
O     6.463000000    -2.168000000     1.571000000
H     7.295000000    -2.052000000     1.112000000
H     5.802000000    -2.138000000     0.880000000
O    -6.163000000    -1.673000000     4.010000000
H    -6.156000000    -2.247000000     3.244000000
H    -5.620000000    -2.127000000     4.655000000
O     6.149000000    -3.919000000    -2.340000000
H     5.458000000    -3.762000000    -2.983000000
H     5.736000000    -4.468000000    -1.673000000
O    -5.359000000     2.562000000     4.332000000
H    -4.617000000     2.355000000     4.899000000
H    -4.994000000     2.554000000     3.447000000
O     0.411000000    -5.076000000    -1.208000000
H     1.024000000    -5.661000000    -1.655000000
H     0.670000000    -5.117000000    -0.288000000
O     5.781000000     1.690000000     2.978000000
H     5.976000000     1.414000000     2.083000000
H     6.430000000     1.236000000     3.516000000
O    -3.753000000     1.692000000     6.631000000
H    -3.738000000     0.794000000     6.961000000
H    -4.416000000     2.132000000     7.163000000
O     2.849000000     2.538000000     6.072000000
H     2.096000000     1.951000000     6.013000000
H     2.693000000     3.048000000     6.867000000
O    -2.131000000    -2.350000000     0.063000000
H    -1.446000000    -1.688000000    -0.030000000
H    -2.881000000    -1.871000000     0.416000000
O    -5.019000000    -2.517000000    -2.415000000
H    -4.693000000    -1.670000000    -2.110000000
H    -5.866000000    -2.618000000    -1.981000000
O    -1.462000000    -1.155000000    -5.708000000
H    -2.080000000    -1.873000000    -5.566000000
H    -0.634000000    -1.479000000    -5.353000000
O    -3.306000000    -1.216000000     6.161000000
H    -4.136000000    -1.617000000     6.418000000
H    -2.647000000    -1.674000000     6.683000000
O    -3.333000000     3.788000000    -0.904000000
H    -4.010000000     4.366000000    -0.552000000
H    -2.853000000     4.333000000    -1.527000000
O    -2.074000000     3.818000000     3.558000000
H    -2.597000000     3.151000000     3.112000000
H    -2.252000000     3.680000000     4.488000000
O    -0.032000000    -1.516000000     4.013000000
H     0.823000000    -1.337000000     3.622000000
H     0.123000000    -2.260000000     4.595000000
O     1.748000000     1.260000000    -4.608000000
H     1.480000000     0.457000000    -4.163000000
H     2.633000000     1.429000000    -4.285000000
O     2.731000000    -1.207000000     4.033000000
H     2.695000000    -0.265000000     3.870000000
H     3.605000000    -1.354000000     4.394000000
O     1.786000000     2.731000000    -0.814000000
H     1.079000000     2.138000000    -0.559000000
H     1.358000000     3.396000000    -1.353000000
O     3.946000000    -3.026000000    -3.763000000
H     3.847000000    -2.418000000    -3.031000000
H     3.051000000    -3.189000000    -4.061000000
O     3.341000000     1.244000000     3.707000000
H     4.077000000     1.738000000     3.345000000
H     3.123000000     1.701000000     4.520000000
O    -3.997000000     2.468000000    -5.747000000
H    -4.201000000     1.631000000    -6.165000000
H    -3.889000000     2.254000000    -4.821000000
O     0.867000000     0.677000000     5.903000000
H     1.175000000    -0.145000000     5.520000000
H     0.123000000     0.931000000     5.357000000
O     1.680000000     2.997000000     1.931000000
H     1.726000000     2.925000000     0.978000000
H     2.416000000     2.473000000     2.247000000
O     5.847000000    -1.225000000    -1.345000000
H     6.075000000    -2.144000000    -1.487000000
H     4.890000000    -1.217000000    -1.320000000
O    -5.385000000     0.263000000     1.854000000
H    -5.827000000    -0.020000000     2.655000000
H    -6.096000000     0.495000000     1.257000000
O    -3.890000000    -0.035000000    -6.550000000
H    -3.764000000    -0.107000000    -7.496000000
H    -3.045000000    -0.285000000    -6.176000000
O     0.480000000     4.823000000    -2.256000000
H     0.838000000     5.447000000    -2.888000000
H    -0.402000000     5.145000000    -2.073000000
O    -6.441000000     1.538000000    -1.112000000
H    -7.043000000     1.326000000    -0.400000000
H    -6.966000000     2.052000000    -1.725000000
O     3.142000000    -3.700000000     2.369000000
H     2.233000000    -3.998000000     2.388000000
H     3.084000000    -2.749000000     2.463000000
O    -0.621000000     4.947000000     0.752000000
H    -0.957000000     4.163000000     0.318000000
H    -0.621000000     4.725000000     1.683000000
O     0.753000000    -2.770000000    -4.690000000
H     1.095000000    -2.109000000    -4.087000000
H     0.206000000    -3.333000000    -4.142000000
O    -2.115000000     0.189000000     4.204000000
H    -2.739000000    -0.189000000     4.823000000
H    -1.471000000    -0.505000000     4.059000000
O    -0.112000000     1.286000000    -6.572000000
H     0.712000000     1.315000000    -6.086000000
H    -0.638000000     0.632000000    -6.114000000
O     5.767000000    -2.375000000    -5.714000000
H     5.434000000    -1.479000000    -5.762000000
H     5.157000000    -2.826000000    -5.129000000
O    -3.936000000     2.533000000     1.808000000
H    -4.280000000     1.641000000     1.858000000
H    -3.922000000     2.732000000     0.872000000
O     0.580000000     4.021000000     4.219000000
H    -0.353000000     3.816000000     4.158000000
H     0.941000000     3.751000000     3.375000000
O    -2.296000000     3.854000000     6.261000000
H    -2.932000000     3.142000000     6.329000000
H    -2.807000000     4.647000000     6.424000000
O     4.502000000     2.800000000    -1.010000000
H     3.586000000     3.077000000    -1.000000000
H     4.568000000     2.218000000    -1.767000000
O    -4.298000000     0.002000000    -2.028000000
H    -4.948000000     0.609000000    -1.674000000
H    -3.859000000     0.497000000    -2.720000000
