158
-3047.02774
C     0.024000000     0.246000000    -1.480000000
H     0.015000000     0.494000000    -2.538000000
C    -1.047000000     0.296000000    -0.633000000
H    -2.059000000     0.495000000    -0.975000000
C    -0.940000000     0.120000000     0.738000000
H    -1.860000000     0.008000000     1.280000000
C     0.308000000    -0.066000000     1.313000000
H     0.378000000    -0.220000000     2.386000000
C     1.398000000    -0.235000000     0.465000000
H     2.380000000    -0.400000000     0.900000000
C     1.236000000    -0.127000000    -0.946000000
C     2.358000000    -0.370000000    -1.858000000
O     2.300000000     0.026000000    -3.033000000
O     3.465000000    -0.602000000    -1.365000000
O    -2.608000000    -2.175000000    -2.238000000
H    -1.810000000    -2.515000000    -1.833000000
H    -3.067000000    -1.732000000    -1.524000000
O    -2.103000000     0.893000000    -6.218000000
H    -1.846000000     0.109000000    -6.702000000
H    -2.794000000     0.594000000    -5.627000000
O     3.779000000    -2.883000000    -0.015000000
H     2.928000000    -2.911000000     0.422000000
H     3.698000000    -2.174000000    -0.653000000
O     1.122000000    -2.643000000    -6.384000000
H     0.988000000    -2.386000000    -5.472000000
H     1.393000000    -3.560000000    -6.338000000
O    -2.806000000     5.219000000     3.398000000
H    -1.957000000     4.840000000     3.170000000
H    -3.118000000     4.686000000     4.129000000
O     4.387000000     1.765000000    -0.651000000
H     3.731000000     2.416000000    -0.402000000
H     3.878000000     1.028000000    -0.988000000
O    -3.344000000     1.729000000    -3.872000000
H    -2.677000000     2.277000000    -4.288000000
H    -3.340000000     2.001000000    -2.955000000
O    -3.144000000    -1.710000000    -4.835000000
H    -3.002000000    -1.835000000    -3.896000000
H    -3.965000000    -1.221000000    -4.890000000
O     7.052000000     2.111000000    -2.179000000
H     6.709000000     1.290000000    -2.532000000
H     6.393000000     2.765000000    -2.412000000
O     3.152000000     2.537000000    -3.465000000
H     3.995000000     2.567000000    -3.918000000
H     2.867000000     1.627000000    -3.552000000
O     5.416000000    -0.559000000     0.680000000
H     5.008000000     0.209000000     0.280000000
H     4.869000000    -1.293000000     0.400000000
O    -6.248000000    -1.319000000     1.876000000
H    -6.902000000    -1.975000000     2.116000000
H    -5.979000000    -0.933000000     2.709000000
O     5.262000000    -3.696000000    -4.022000000
H     4.733000000    -2.938000000    -4.273000000
H     5.365000000    -4.194000000    -4.833000000
O    -5.090000000     3.308000000     2.972000000
H    -4.695000000     4.086000000     3.366000000
H    -6.031000000     3.478000000     2.997000000
O    -0.529000000    -3.637000000    -0.869000000
H    -0.426000000    -4.565000000    -0.655000000
H     0.116000000    -3.192000000    -0.319000000
O     5.289000000    -4.875000000     1.362000000
H     6.128000000    -4.591000000     0.999000000
H     4.698000000    -4.139000000     1.203000000
O    -1.093000000    -0.448000000     6.498000000
H    -1.176000000    -0.831000000     5.625000000
H    -0.871000000    -1.188000000     7.063000000
O    -5.759000000     0.709000000     3.704000000
H    -5.968000000     0.856000000     4.626000000
H    -5.492000000     1.569000000     3.378000000
O     5.305000000     3.514000000     1.988000000
H     4.834000000     2.788000000     2.396000000
H     6.002000000     3.095000000     1.484000000
O    -1.911000000    -2.755000000     1.508000000
H    -2.112000000    -3.690000000     1.555000000
H    -1.469000000    -2.648000000     0.666000000
O    -4.242000000    -1.077000000    -0.244000000
H    -4.781000000    -1.433000000     0.463000000
H    -4.290000000    -0.129000000    -0.127000000
O    -3.047000000    -3.297000000     5.939000000
H    -2.481000000    -2.829000000     5.326000000
H    -2.442000000    -3.767000000     6.513000000
O     4.482000000     1.520000000     3.421000000
H     4.359000000     1.132000000     4.287000000
H     3.599000000     1.753000000     3.134000000
O    -2.680000000     1.779000000     7.049000000
H    -2.115000000     1.975000000     7.797000000
H    -2.337000000     0.957000000     6.699000000
O    -1.419000000     3.007000000     2.578000000
H    -0.892000000     2.832000000     1.798000000
H    -1.916000000     2.201000000     2.717000000
O    -1.315000000    -1.881000000     4.169000000
H    -0.394000000    -2.137000000     4.113000000
H    -1.719000000    -2.271000000     3.394000000
O     1.985000000     3.065000000    -6.053000000
H     2.067000000     3.177000000    -5.105000000
H     2.349000000     3.871000000    -6.421000000
O    -4.488000000    -4.045000000    -0.191000000
H    -4.214000000    -3.297000000    -0.721000000
H    -4.339000000    -4.805000000    -0.755000000
O     3.321000000    -1.119000000     3.214000000
H     3.689000000    -0.331000000     2.815000000
H     4.069000000    -1.547000000     3.633000000
O    -0.024000000     3.270000000    -0.292000000
H    -0.368000000     2.550000000    -0.822000000
H    -0.765000000     3.867000000    -0.190000000
O     3.707000000    -1.410000000    -5.007000000
H     3.092000000    -1.053000000    -4.366000000
H     3.185000000    -1.526000000    -5.801000000
O     2.117000000     2.152000000     2.293000000
H     1.547000000     2.198000000     3.060000000
H     1.638000000     1.604000000     1.671000000
O     0.150000000     1.429000000     4.872000000
H     0.135000000     1.062000000     5.756000000
H    -0.742000000     1.306000000     4.547000000
O     5.686000000    -0.183000000    -2.820000000
H     5.242000000    -0.128000000    -3.667000000
H     4.996000000    -0.430000000    -2.204000000
O     1.613000000    -4.634000000    -3.561000000
H     1.296000000    -3.748000000    -3.385000000
H     2.072000000    -4.888000000    -2.760000000
O    -6.220000000     0.959000000     0.039000000
H    -6.577000000     0.198000000     0.496000000
H    -6.797000000     1.078000000    -0.715000000
O     3.342000000    -5.346000000    -1.728000000
H     4.093000000    -4.840000000    -2.039000000
H     3.589000000    -5.623000000    -0.846000000
O     1.233000000    -2.821000000     3.911000000
H     1.736000000    -3.591000000     4.175000000
H     1.869000000    -2.258000000     3.470000000
O     7.971000000    -1.286000000    -3.341000000
H     7.152000000    -0.818000000    -3.177000000
H     8.087000000    -1.241000000    -4.290000000
O    -2.448000000     4.211000000    -0.638000000
H    -2.918000000     4.962000000    -0.275000000
H    -2.841000000     3.451000000    -0.208000000
O     0.574000000    -2.152000000    -3.885000000
H     1.057000000    -1.372000000    -3.610000000
H    -0.347000000    -1.898000000    -3.822000000
O    -2.671000000     0.734000000     3.526000000
H    -2.505000000    -0.208000000     3.531000000
H    -3.564000000     0.822000000     3.861000000
O     2.160000000     0.659000000    -7.192000000
H     3.090000000     0.751000000    -6.984000000
H     1.753000000     1.443000000    -6.823000000
O     1.472000000    -3.721000000     1.268000000
H     1.306000000    -3.396000000     2.153000000
H     1.152000000    -4.623000000     1.280000000
O    -3.992000000     2.242000000     0.729000000
H    -4.873000000     1.946000000     0.500000000
H    -4.068000000     2.546000000     1.633000000
O     6.958000000     1.601000000     0.703000000
H     6.728000000     0.683000000     0.848000000
H     7.027000000     1.684000000    -0.248000000
O     2.508000000     3.827000000    -1.085000000
H     1.592000000     3.714000000    -0.832000000
H     2.554000000     3.483000000    -1.977000000
O    -5.390000000    -0.011000000    -4.507000000
H    -6.068000000     0.499000000    -4.952000000
H    -4.857000000     0.643000000    -4.054000000
