158
-2986.48025
C    -0.044000000    -1.064000000    -1.072000000
H    -0.026000000    -1.754000000    -1.912000000
C    -1.047000000    -0.065000000    -0.877000000
H    -1.832000000    -0.026000000    -1.628000000
C    -0.938000000     0.789000000     0.180000000
H    -1.783000000     1.444000000     0.299000000
C     0.156000000     0.744000000     0.998000000
H     0.212000000     1.419000000     1.848000000
C     1.207000000    -0.160000000     0.771000000
H     2.016000000    -0.203000000     1.496000000
C     1.088000000    -1.082000000    -0.245000000
C     2.172000000    -2.073000000    -0.513000000
O     2.243000000    -2.584000000    -1.619000000
O     2.934000000    -2.370000000     0.385000000
O    -6.300000000    -1.268000000     1.323000000
H    -5.529000000    -0.957000000     0.849000000
H    -6.730000000    -1.867000000     0.713000000
O     4.040000000    -6.617000000     2.816000000
H     3.605000000    -5.913000000     2.336000000
H     4.855000000    -6.767000000     2.337000000
O    -1.613000000    -1.838000000     2.057000000
H    -1.417000000    -1.275000000     1.308000000
H    -2.420000000    -2.290000000     1.812000000
O    -2.697000000     3.409000000     2.678000000
H    -2.933000000     3.926000000     3.449000000
H    -2.303000000     4.042000000     2.078000000
O    -0.316000000     5.276000000     4.341000000
H    -0.464000000     6.221000000     4.310000000
H    -0.975000000     4.950000000     4.953000000
O    -0.974000000    -2.477000000     4.619000000
H    -1.221000000    -2.329000000     3.707000000
H    -0.021000000    -2.384000000     4.627000000
O    -2.153000000     4.922000000     0.581000000
H    -2.429000000     5.838000000     0.541000000
H    -1.357000000     4.888000000     0.051000000
O     1.487000000     2.028000000    -1.508000000
H     1.224000000     2.917000000    -1.745000000
H     0.687000000     1.622000000    -1.173000000
O     4.888000000    -2.566000000    -2.998000000
H     4.360000000    -2.976000000    -2.313000000
H     4.317000000    -1.893000000    -3.369000000
O     1.955000000    -4.647000000     1.635000000
H     2.185000000    -3.834000000     1.184000000
H     1.009000000    -4.729000000     1.512000000
O     7.349000000    -1.543000000     2.091000000
H     6.655000000    -1.215000000     1.520000000
H     6.895000000    -2.099000000     2.725000000
O     3.219000000     2.770000000     1.178000000
H     2.722000000     3.291000000     1.809000000
H     2.601000000     2.104000000     0.877000000
O    -4.223000000     1.848000000     0.950000000
H    -3.819000000     2.286000000     1.699000000
H    -4.321000000     0.937000000     1.229000000
O     7.132000000    -4.263000000    -3.162000000
H     7.168000000    -4.557000000    -4.073000000
H     6.464000000    -3.578000000    -3.158000000
O     4.023000000    -0.166000000     4.242000000
H     4.736000000    -0.800000000     4.307000000
H     4.462000000     0.676000000     4.118000000
O     2.157000000     0.804000000    -5.426000000
H     2.343000000     0.331000000    -4.615000000
H     2.511000000     1.681000000    -5.279000000
O    -2.936000000    -1.031000000    -5.626000000
H    -2.172000000    -0.540000000    -5.928000000
H    -3.512000000    -0.368000000    -5.245000000
O    -6.475000000     0.701000000     4.374000000
H    -5.770000000     0.921000000     3.766000000
H    -6.463000000     1.406000000     5.021000000
O     1.648000000    -2.166000000     4.833000000
H     2.041000000    -3.011000000     5.053000000
H     2.390000000    -1.563000000     4.784000000
O    -4.481000000    -0.586000000    -0.828000000
H    -4.804000000     0.105000000    -1.407000000
H    -4.310000000    -1.326000000    -1.411000000
O     1.564000000     3.542000000     3.352000000
H     1.141000000     4.390000000     3.488000000
H     0.867000000     2.901000000     3.490000000
O     4.708000000    -3.363000000     2.092000000
H     4.413000000    -2.928000000     2.892000000
H     4.046000000    -3.138000000     1.439000000
O     3.169000000    -5.275000000    -1.070000000
H     2.980000000    -4.342000000    -1.172000000
H     2.924000000    -5.471000000    -0.166000000
O     1.028000000    -3.762000000    -3.847000000
H     0.409000000    -3.877000000    -3.127000000
H     1.876000000    -3.647000000    -3.419000000
O    -2.750000000    -3.248000000    -3.636000000
H    -3.660000000    -3.233000000    -3.339000000
H    -2.770000000    -2.821000000    -4.492000000
O    -0.981000000    -4.692000000    -2.107000000
H    -0.993000000    -4.470000000    -1.176000000
H    -1.625000000    -4.105000000    -2.502000000
O     2.749000000    -0.325000000    -2.904000000
H     2.179000000     0.375000000    -2.586000000
H     2.416000000    -1.116000000    -2.481000000
O     1.068000000     4.910000000    -1.636000000
H     0.453000000     5.638000000    -1.554000000
H     1.901000000     5.325000000    -1.861000000
O    -0.572000000     1.858000000     4.048000000
H    -0.983000000     1.037000000     4.319000000
H    -1.256000000     2.318000000     3.561000000
O    -3.006000000     2.884000000    -1.781000000
H    -3.921000000     3.101000000    -1.962000000
H    -2.996000000     2.646000000    -0.854000000
O    -0.822000000    -4.376000000     0.924000000
H    -1.276000000    -5.066000000     1.408000000
H    -1.123000000    -3.562000000     1.327000000
O    -0.890000000     7.087000000    -1.366000000
H    -0.987000000     7.978000000    -1.701000000
H    -1.759000000     6.699000000    -1.462000000
O     7.375000000    -4.245000000     0.426000000
H     6.434000000    -4.376000000     0.545000000
H     7.777000000    -4.747000000     1.135000000
O    -2.042000000     4.418000000    -3.802000000
H    -2.288000000     3.946000000    -3.006000000
H    -1.093000000     4.523000000    -3.734000000
O    -4.520000000     0.865000000    -4.427000000
H    -4.250000000     1.738000000    -4.713000000
H    -5.183000000     1.028000000    -3.756000000
O    -3.518000000    -0.303000000     3.384000000
H    -2.649000000    -0.615000000     3.130000000
H    -3.372000000     0.175000000     4.200000000
O     7.695000000    -1.203000000    -0.899000000
H     7.126000000    -0.591000000    -0.432000000
H     8.115000000    -1.714000000    -0.208000000
O     4.595000000     3.062000000    -1.337000000
H     4.842000000     3.979000000    -1.453000000
H     3.746000000     3.097000000    -0.895000000
O    -6.195000000     1.888000000    -2.326000000
H    -6.103000000     2.772000000    -2.681000000
H    -6.253000000     2.015000000    -1.379000000
O     5.278000000    -6.537000000    -2.539000000
H     5.903000000    -5.816000000    -2.461000000
H     4.453000000    -6.174000000    -2.214000000
O    -5.877000000     4.646000000     3.143000000
H    -4.926000000     4.750000000     3.154000000
H    -6.215000000     5.539000000     3.085000000
O    -0.689000000    -3.767000000    -6.096000000
H    -1.565000000    -3.705000000    -5.716000000
H    -0.100000000    -3.782000000    -5.341000000
O    -5.939000000     3.729000000    -0.014000000
H    -5.875000000     4.569000000     0.442000000
H    -5.325000000     3.158000000     0.448000000
O     1.133000000     2.026000000     6.361000000
H     0.883000000     1.291000000     6.921000000
H     0.737000000     1.826000000     5.512000000
O    -5.518000000    -2.159000000    -2.874000000
H    -6.032000000    -1.432000000    -3.225000000
H    -5.841000000    -2.929000000    -3.343000000
O     4.863000000    -0.439000000     1.416000000
H     4.287000000    -1.144000000     1.121000000
H     4.310000000     0.104000000     1.978000000
O     1.126000000    -6.641000000    -2.708000000
H     0.613000000    -6.143000000    -2.071000000
H     1.928000000    -6.131000000    -2.821000000
O     6.608000000     1.647000000     0.300000000
H     5.901000000     1.107000000     0.656000000
H     6.162000000     2.305000000    -0.232000000
