158
-3014.76209
C     0.231000000    -1.372000000    -0.609000000
H     0.281000000    -2.237000000    -1.265000000
C    -0.706000000    -0.443000000    -1.037000000
H    -1.357000000    -0.685000000    -1.873000000
C    -0.840000000     0.801000000    -0.363000000
H    -1.556000000     1.472000000    -0.860000000
C    -0.026000000     1.177000000     0.711000000
H    -0.105000000     2.192000000     1.090000000
C     0.945000000     0.273000000     1.105000000
H     1.656000000     0.542000000     1.882000000
C     1.095000000    -1.011000000     0.469000000
C     2.269000000    -1.969000000     0.858000000
O     2.227000000    -3.117000000     0.363000000
O     3.130000000    -1.624000000     1.666000000
O    -1.772000000     4.561000000     0.205000000
H    -2.289000000     5.317000000     0.485000000
H    -1.087000000     4.932000000    -0.351000000
O    -2.721000000    -0.424000000     1.408000000
H    -3.320000000    -0.604000000     0.682000000
H    -1.865000000    -0.323000000     0.992000000
O    -0.035000000     6.509000000    -1.013000000
H    -0.402000000     7.327000000    -0.679000000
H     0.912000000     6.616000000    -0.922000000
O    -0.391000000     0.867000000    -4.220000000
H    -0.771000000     1.021000000    -5.085000000
H    -0.822000000     0.071000000    -3.907000000
O     1.855000000    -4.710000000    -5.273000000
H     1.956000000    -3.793000000    -5.529000000
H     1.910000000    -4.698000000    -4.317000000
O     4.176000000    -2.737000000    -2.513000000
H     3.346000000    -3.213000000    -2.494000000
H     3.925000000    -1.822000000    -2.641000000
O     2.520000000    -2.828000000     4.596000000
H     3.056000000    -2.684000000     3.816000000
H     1.674000000    -2.436000000     4.381000000
O     5.308000000    -1.203000000    -0.364000000
H     4.960000000    -1.745000000     0.344000000
H     5.350000000    -1.792000000    -1.118000000
O     2.909000000     4.415000000     0.263000000
H     3.595000000     3.777000000     0.458000000
H     2.269000000     4.301000000     0.966000000
O    -3.822000000     2.961000000    -0.222000000
H    -3.009000000     3.455000000    -0.324000000
H    -3.819000000     2.681000000     0.693000000
O     4.214000000     2.314000000     3.825000000
H     3.857000000     2.223000000     4.708000000
H     5.161000000     2.374000000     3.953000000
O     5.206000000    -5.821000000    -1.703000000
H     4.594000000    -5.330000000    -2.250000000
H     5.335000000    -6.648000000    -2.168000000
O     0.166000000     2.506000000     4.400000000
H     0.912000000     2.956000000     4.003000000
H    -0.600000000     2.890000000     3.972000000
O    -0.925000000     0.122000000     3.845000000
H    -1.321000000     0.611000000     3.124000000
H    -0.249000000     0.706000000     4.188000000
O    -4.447000000    -0.800000000    -0.444000000
H    -4.473000000    -1.379000000    -1.206000000
H    -5.335000000    -0.834000000    -0.088000000
O     2.077000000     4.127000000     2.881000000
H     2.486000000     4.927000000     3.211000000
H     2.744000000     3.451000000     3.000000000
O     5.270000000    -3.618000000     2.217000000
H     4.842000000    -2.762000000     2.206000000
H     4.549000000    -4.247000000     2.185000000
O     0.275000000    -4.853000000     1.326000000
H     1.127000000    -4.421000000     1.270000000
H    -0.321000000    -4.269000000     0.857000000
O     1.727000000    -3.955000000    -2.395000000
H     0.771000000    -3.940000000    -2.443000000
H     1.921000000    -3.861000000    -1.462000000
O    -3.764000000    -4.894000000    -2.871000000
H    -3.694000000    -4.746000000    -3.814000000
H    -3.912000000    -4.023000000    -2.502000000
O    -1.049000000    -5.020000000    -3.093000000
H    -1.843000000    -5.216000000    -2.597000000
H    -1.265000000    -4.229000000    -3.589000000
O     2.429000000    -2.089000000    -5.527000000
H     3.127000000    -1.730000000    -6.074000000
H     2.439000000    -1.545000000    -4.739000000
O     1.178000000     2.970000000    -2.469000000
H     0.638000000     2.342000000    -2.949000000
H     1.449000000     2.500000000    -1.681000000
O    -1.674000000     3.524000000     2.780000000
H    -2.448000000     2.980000000     2.633000000
H    -1.488000000     3.912000000     1.925000000
O    -3.227000000     3.132000000    -3.183000000
H    -3.254000000     2.947000000    -2.244000000
H    -2.392000000     3.580000000    -3.316000000
O    -2.200000000    -3.495000000     1.152000000
H    -2.487000000    -4.408000000     1.135000000
H    -2.974000000    -2.995000000     0.893000000
O     6.752000000    -4.738000000     0.106000000
H     6.275000000    -4.546000000     0.914000000
H     6.117000000    -5.200000000    -0.442000000
O    -4.273000000     2.568000000    -5.936000000
H    -4.020000000     1.785000000    -6.425000000
H    -3.745000000     2.533000000    -5.139000000
O    -3.803000000     0.342000000    -3.784000000
H    -3.395000000     0.264000000    -4.647000000
H    -3.480000000     1.175000000    -3.441000000
O     3.198000000    -1.533000000     6.850000000
H     3.199000000    -2.038000000     6.036000000
H     3.800000000    -2.006000000     7.425000000
O    -3.851000000     1.965000000     2.297000000
H    -4.293000000     1.908000000     3.144000000
H    -3.480000000     1.093000000     2.161000000
O     3.324000000    -5.623000000     1.142000000
H     3.095000000    -4.958000000     0.494000000
H     2.936000000    -6.430000000     0.804000000
O     7.258000000     0.787000000    -0.443000000
H     7.432000000     0.974000000     0.479000000
H     6.476000000     0.234000000    -0.432000000
O    -0.528000000    -3.021000000     3.636000000
H    -1.013000000    -2.285000000     3.262000000
H    -0.399000000    -3.620000000     2.900000000
O     7.619000000     0.521000000     2.503000000
H     6.884000000     0.034000000     2.874000000
H     7.537000000     1.399000000     2.876000000
O    -6.781000000     0.548000000    -3.086000000
H    -5.881000000     0.524000000    -2.761000000
H    -6.862000000    -0.239000000    -3.625000000
O    -2.408000000    -2.684000000    -4.845000000
H    -2.703000000    -2.082000000    -5.529000000
H    -2.759000000    -3.535000000    -5.107000000
O    -0.888000000     4.463000000    -3.779000000
H     0.019000000     4.375000000    -3.486000000
H    -0.835000000     4.431000000    -4.735000000
O     2.566000000     0.001000000    -3.537000000
H     1.700000000     0.322000000    -3.786000000
H     3.176000000     0.549000000    -4.032000000
O    -6.183000000     4.261000000    -0.479000000
H    -6.150000000     5.041000000     0.074000000
H    -5.276000000     3.959000000    -0.523000000
O     0.740000000    -7.082000000     3.047000000
H     1.121000000    -6.550000000     2.349000000
H     0.088000000    -6.512000000     3.454000000
O    -0.660000000     5.935000000     3.834000000
H    -0.582000000     5.002000000     3.635000000
H    -1.453000000     6.213000000     3.375000000
O    -4.313000000    -2.157000000    -2.607000000
H    -3.941000000    -1.441000000    -3.122000000
H    -5.174000000    -2.310000000    -2.997000000
O     4.834000000    -0.458000000     3.570000000
H     4.459000000    -0.961000000     2.847000000
H     4.329000000     0.355000000     3.583000000
O     1.512000000    -6.825000000    -2.153000000
H     1.428000000    -5.926000000    -2.471000000
H     0.907000000    -6.875000000    -1.413000000
O    -6.411000000     1.786000000     0.507000000
H    -6.714000000     2.662000000     0.269000000
H    -5.485000000     1.903000000     0.719000000
O    -2.897000000     6.675000000    -3.684000000
H    -3.793000000     6.596000000    -3.356000000
H    -2.468000000     5.866000000    -3.404000000
O     3.912000000     1.691000000    -0.719000000
H     4.034000000     0.776000000    -0.462000000
H     4.798000000     2.049000000    -0.759000000
