158
-3053.67221
C     0.007000000    -1.455000000    -0.293000000
H    -0.130000000    -2.523000000    -0.443000000
C    -0.881000000    -0.554000000    -0.760000000
H    -1.757000000    -0.970000000    -1.251000000
C    -0.782000000     0.805000000    -0.517000000
H    -1.508000000     1.456000000    -0.985000000
C     0.259000000     1.306000000     0.225000000
H     0.339000000     2.314000000     0.624000000
C     1.168000000     0.376000000     0.744000000
H     2.050000000     0.732000000     1.271000000
C     1.076000000    -1.003000000     0.550000000
C     2.041000000    -1.946000000     1.108000000
O     1.714000000    -3.102000000     1.350000000
O     3.205000000    -1.592000000     1.161000000
O     4.914000000    -6.592000000     2.261000000
H     4.936000000    -6.760000000     3.203000000
H     3.994000000    -6.701000000     2.020000000
O    -2.339000000     4.798000000     0.054000000
H    -2.490000000     4.524000000     0.959000000
H    -1.467000000     5.192000000     0.065000000
O     6.695000000    -3.247000000     4.092000000
H     5.829000000    -2.882000000     3.910000000
H     6.714000000    -3.355000000     5.043000000
O     0.308000000     0.989000000    -5.259000000
H    -0.051000000     0.204000000    -4.845000000
H     1.235000000     0.788000000    -5.389000000
O    -1.285000000     3.330000000    -5.546000000
H    -0.892000000     2.460000000    -5.477000000
H    -0.573000000     3.932000000    -5.327000000
O    -0.122000000    -3.601000000    -2.915000000
H    -0.384000000    -4.225000000    -2.238000000
H     0.832000000    -3.561000000    -2.846000000
O     2.455000000    -4.281000000     3.762000000
H     2.202000000    -4.178000000     2.844000000
H     2.514000000    -5.228000000     3.889000000
O     5.124000000    -0.284000000    -0.172000000
H     4.500000000    -0.332000000     0.552000000
H     5.523000000    -1.153000000    -0.203000000
O     0.380000000     4.896000000     0.039000000
H     1.272000000     4.613000000     0.242000000
H     0.288000000     4.741000000    -0.901000000
O     1.499000000     7.570000000     0.896000000
H     1.092000000     6.733000000     0.672000000
H     0.820000000     8.221000000     0.718000000
O    -4.402000000     3.480000000    -1.196000000
H    -3.674000000     3.752000000    -0.638000000
H    -4.667000000     2.629000000    -0.847000000
O     1.003000000    -6.951000000     2.973000000
H     0.432000000    -6.346000000     3.447000000
H     0.434000000    -7.684000000     2.740000000
O    -3.592000000     7.421000000    -0.980000000
H    -4.009000000     7.824000000    -0.218000000
H    -3.212000000     6.610000000    -0.643000000
O    -0.251000000     0.897000000     3.621000000
H     0.185000000     1.317000000     2.880000000
H     0.143000000     0.025000000     3.669000000
O     0.174000000    -4.610000000    -5.380000000
H     0.637000000    -4.025000000    -5.980000000
H     0.198000000    -4.158000000    -4.537000000
O     1.391000000    -1.142000000     4.151000000
H     2.059000000    -1.797000000     3.951000000
H     1.567000000    -0.889000000     5.057000000
O    -3.486000000    -0.488000000     1.261000000
H    -2.766000000    -0.141000000     0.734000000
H    -4.182000000    -0.667000000     0.628000000
O    -1.007000000    -1.106000000    -4.212000000
H    -1.122000000    -1.753000000    -4.908000000
H    -0.846000000    -1.627000000    -3.425000000
O     1.594000000     3.606000000     4.757000000
H     0.904000000     3.606000000     4.093000000
H     2.318000000     4.081000000     4.349000000
O     4.209000000    -2.224000000     3.342000000
H     3.916000000    -1.944000000     2.475000000
H     3.726000000    -3.034000000     3.508000000
O    -0.551000000    -4.131000000     2.988000000
H     0.127000000    -3.752000000     2.428000000
H    -0.962000000    -3.377000000     3.411000000
O     4.071000000    -3.145000000    -1.056000000
H     3.339000000    -3.607000000    -1.465000000
H     3.658000000    -2.540000000    -0.440000000
O    -5.026000000    -2.980000000    -1.053000000
H    -5.389000000    -2.549000000    -1.827000000
H    -5.553000000    -2.648000000    -0.326000000
O     2.342000000    -4.863000000    -2.397000000
H     2.943000000    -5.601000000    -2.294000000
H     1.484000000    -5.219000000    -2.165000000
O     2.666000000    -0.327000000    -4.805000000
H     3.553000000    -0.671000000    -4.697000000
H     2.168000000    -0.720000000    -4.089000000
O     0.379000000    -6.172000000    -1.246000000
H     1.039000000    -5.986000000    -0.578000000
H    -0.246000000    -6.750000000    -0.811000000
O     0.440000000     3.842000000    -2.465000000
H     0.294000000     2.896000000    -2.472000000
H     1.383000000     3.938000000    -2.334000000
O     0.052000000     3.854000000     2.643000000
H    -0.891000000     3.760000000     2.506000000
H     0.365000000     4.304000000     1.858000000
O    -4.266000000    -3.767000000    -3.692000000
H    -4.660000000    -4.607000000    -3.925000000
H    -3.338000000    -3.965000000    -3.563000000
O     5.600000000    -0.354000000     4.834000000
H     5.121000000    -0.777000000     4.121000000
H     5.140000000     0.474000000     4.973000000
O    -3.661000000     5.304000000    -3.187000000
H    -3.779000000     4.696000000    -2.457000000
H    -3.111000000     6.002000000    -2.832000000
O    -2.505000000    -4.321000000    -1.034000000
H    -2.498000000    -4.405000000    -0.080000000
H    -3.333000000    -3.883000000    -1.229000000
O     6.039000000    -5.159000000     0.316000000
H     5.723000000    -5.717000000     1.027000000
H     5.274000000    -4.644000000     0.059000000
O    -5.490000000     2.854000000    -4.034000000
H    -4.720000000     3.358000000    -3.769000000
H    -5.494000000     2.096000000    -3.449000000
O    -3.090000000    -5.084000000     1.824000000
H    -2.372000000    -4.654000000     2.288000000
H    -3.132000000    -5.961000000     2.206000000
O    -4.963000000     0.761000000    -0.730000000
H    -5.874000000     0.890000000    -0.995000000
H    -4.471000000     0.770000000    -1.551000000
O     3.105000000     3.802000000    -2.479000000
H     3.449000000     3.510000000    -3.323000000
H     3.621000000     3.323000000    -1.831000000
O    -2.968000000     3.900000000     2.722000000
H    -3.831000000     4.272000000     2.906000000
H    -3.013000000     3.010000000     3.071000000
O     2.424000000    -5.753000000     1.047000000
H     2.300000000    -4.805000000     1.015000000
H     1.781000000    -6.057000000     1.689000000
O     4.780000000     2.271000000    -0.760000000
H     4.878000000     1.340000000    -0.561000000
H     5.480000000     2.456000000    -1.387000000
O     0.376000000    -4.060000000     5.747000000
H     0.156000000    -3.969000000     4.820000000
H     1.330000000    -4.143000000     5.760000000
O     7.317000000    -2.282000000    -0.726000000
H     7.191000000    -1.932000000    -1.609000000
H     6.976000000    -3.175000000    -0.772000000
O    -3.681000000     0.662000000    -3.256000000
H    -3.339000000     1.328000000    -3.853000000
H    -3.157000000    -0.117000000    -3.442000000
O    -0.670000000     6.282000000    -3.621000000
H    -0.095000000     6.114000000    -2.875000000
H    -0.833000000     5.417000000    -3.998000000
O     1.740000000    -1.260000000    -2.544000000
H     1.244000000    -0.542000000    -2.150000000
H     2.420000000    -1.463000000    -1.901000000
O    -2.995000000     1.224000000     3.275000000
H    -3.353000000     0.581000000     2.663000000
H    -2.090000000     0.947000000     3.412000000
O     3.647000000     1.426000000     4.999000000
H     3.768000000     1.612000000     5.931000000
H     2.777000000     1.770000000     4.797000000
O     2.918000000     3.900000000     0.802000000
H     3.542000000     3.458000000     0.227000000
H     3.376000000     3.975000000     1.640000000
