158
-3039.43325
C     0.806000000    -0.686000000    -1.057000000
H     1.289000000    -1.286000000    -1.825000000
C    -0.566000000    -0.333000000    -1.101000000
H    -1.200000000    -0.532000000    -1.960000000
C    -1.216000000     0.257000000    -0.017000000
H    -2.323000000     0.427000000     0.001000000
C    -0.450000000     0.760000000     1.013000000
H    -0.941000000     1.373000000     1.765000000
C     0.953000000     0.465000000     1.048000000
H     1.552000000     0.830000000     1.878000000
C     1.571000000    -0.290000000     0.037000000
C     3.001000000    -0.779000000     0.137000000
O     3.480000000    -1.418000000    -0.767000000
O     3.597000000    -0.571000000     1.198000000
O    -7.400000000    -0.563000000     2.757000000
H    -6.698000000    -0.684000000     3.398000000
H    -7.277000000    -1.275000000     2.130000000
O     7.807000000     0.845000000     2.387000000
H     8.130000000    -0.053000000     2.453000000
H     8.429000000     1.361000000     2.901000000
O    -4.414000000    -4.604000000     0.567000000
H    -3.690000000    -5.090000000     0.962000000
H    -5.139000000    -5.229000000     0.545000000
O    -0.548000000     0.905000000    -5.030000000
H     0.170000000     0.440000000    -4.599000000
H    -0.739000000     0.382000000    -5.808000000
O    -1.467000000    -3.937000000    -1.676000000
H    -1.022000000    -4.575000000    -2.234000000
H    -0.758000000    -3.467000000    -1.236000000
O     7.638000000    -1.974000000     2.044000000
H     6.757000000    -2.345000000     2.097000000
H     7.992000000    -2.315000000     1.222000000
O     2.544000000    -1.065000000     3.715000000
H     3.042000000    -0.951000000     2.905000000
H     2.819000000    -0.335000000     4.269000000
O    -4.006000000     5.161000000     0.884000000
H    -3.906000000     5.732000000     1.645000000
H    -4.919000000     5.272000000     0.619000000
O    -1.994000000     4.778000000    -1.555000000
H    -1.461000000     4.014000000    -1.334000000
H    -2.591000000     4.876000000    -0.814000000
O    -6.031000000     1.960000000     0.569000000
H    -5.889000000     1.266000000    -0.075000000
H    -6.227000000     2.737000000     0.045000000
O    -7.541000000     2.891000000     2.499000000
H    -7.052000000     2.397000000     1.841000000
H    -7.313000000     3.806000000     2.331000000
O     5.601000000    -4.166000000    -0.501000000
H     5.104000000    -4.974000000    -0.630000000
H     5.732000000    -3.822000000    -1.385000000
O     1.245000000    -3.982000000    -1.417000000
H     1.844000000    -3.804000000    -2.143000000
H     1.732000000    -3.719000000    -0.636000000
O    -3.009000000    -1.110000000     3.317000000
H    -3.360000000    -0.250000000     3.087000000
H    -2.687000000    -1.467000000     2.489000000
O    -4.297000000     1.407000000     2.632000000
H    -4.879000000     1.727000000     1.942000000
H    -3.839000000     2.189000000     2.940000000
O    -0.067000000     2.721000000    -1.089000000
H    -0.027000000     1.781000000    -0.913000000
H    -0.031000000     2.788000000    -2.043000000
O    -5.775000000    -2.887000000     2.442000000
H    -5.121000000    -3.095000000     3.109000000
H    -5.417000000    -3.254000000     1.633000000
O     2.359000000     0.419000000    -4.808000000
H     2.811000000     0.996000000    -4.192000000
H     2.172000000     0.975000000    -5.564000000
O     0.548000000     3.188000000     3.462000000
H     0.464000000     4.102000000     3.733000000
H     0.638000000     2.703000000     4.283000000
O     0.122000000    -2.196000000     3.171000000
H    -0.161000000    -1.682000000     2.415000000
H     1.053000000    -1.995000000     3.262000000
O    -2.494000000    -2.522000000     0.954000000
H    -2.816000000    -1.713000000     0.556000000
H    -2.885000000    -3.220000000     0.428000000
O     3.045000000    -1.734000000    -3.446000000
H     3.143000000    -1.461000000    -2.533000000
H     2.579000000    -1.009000000    -3.863000000
O     5.248000000    -0.540000000    -4.880000000
H     5.344000000    -0.252000000    -5.788000000
H     4.306000000    -0.663000000    -4.766000000
O     4.743000000     1.939000000     0.589000000
H     4.313000000     1.088000000     0.671000000
H     5.656000000     1.728000000     0.394000000
O     6.041000000    -0.251000000     4.207000000
H     5.774000000    -0.804000000     3.473000000
H     6.344000000     0.560000000     3.799000000
O    -5.629000000    -0.368000000     4.773000000
H    -5.461000000    -0.745000000     5.637000000
H    -4.825000000     0.105000000     4.559000000
O    -0.478000000     6.350000000     1.061000000
H    -1.073000000     5.610000000     1.185000000
H     0.193000000     6.232000000     1.733000000
O     2.453000000    -2.487000000    -6.912000000
H     2.221000000    -2.004000000    -6.119000000
H     3.005000000    -3.205000000    -6.602000000
O    -2.625000000     3.176000000     4.111000000
H    -1.680000000     3.261000000     3.984000000
H    -2.961000000     4.067000000     4.015000000
O    -2.825000000     5.226000000    -4.382000000
H    -2.722000000     4.614000000    -3.653000000
H    -3.289000000     4.723000000    -5.052000000
O     5.909000000    -0.466000000    -1.723000000
H     5.185000000    -0.948000000    -1.324000000
H     5.622000000    -0.303000000    -2.621000000
O     4.877000000     3.083000000     2.990000000
H     5.019000000     3.939000000     2.585000000
H     4.922000000     2.463000000     2.262000000
O    -4.412000000     2.157000000     5.911000000
H    -5.256000000     2.219000000     5.463000000
H    -3.763000000     2.245000000     5.213000000
O    -4.658000000    -0.757000000    -0.217000000
H    -5.007000000    -1.262000000    -0.952000000
H    -5.404000000    -0.248000000     0.099000000
O     4.964000000    -2.620000000     1.765000000
H     4.434000000    -1.883000000     1.462000000
H     5.309000000    -3.013000000     0.964000000
O     7.435000000     1.067000000    -0.245000000
H     6.759000000     0.445000000    -0.512000000
H     7.644000000     0.822000000     0.656000000
O     3.541000000     1.337000000     5.063000000
H     4.076000000     1.321000000     5.856000000
H     4.041000000     1.873000000     4.448000000
O     0.947000000     1.716000000     6.071000000
H     1.822000000     1.775000000     5.687000000
H     0.539000000     0.974000000     5.624000000
O     0.221000000     3.119000000    -3.700000000
H     0.836000000     3.658000000    -4.197000000
H    -0.404000000     2.804000000    -4.353000000
O    -4.620000000    -0.759000000    -3.984000000
H    -4.743000000    -1.400000000    -3.284000000
H    -4.033000000    -1.191000000    -4.605000000
O     3.656000000     3.669000000    -1.271000000
H     3.808000000     3.098000000    -0.518000000
H     2.899000000     4.199000000    -1.021000000
O     2.854000000     5.788000000     2.410000000
H     3.513000000     5.247000000     2.846000000
H     2.515000000     5.232000000     1.708000000
O    -6.973000000     0.378000000    -1.686000000
H    -6.937000000     0.740000000    -2.571000000
H    -7.854000000     0.010000000    -1.614000000
O     3.700000000    -3.588000000     3.978000000
H     4.237000000    -3.426000000     3.203000000
H     3.240000000    -2.762000000     4.128000000
O     1.522000000     3.647000000     0.978000000
H     1.021000000     3.309000000     0.235000000
H     1.090000000     3.276000000     1.747000000
O    -4.468000000    -3.026000000    -1.895000000
H    -3.515000000    -3.096000000    -1.840000000
H    -4.792000000    -3.714000000    -1.313000000
O     5.347000000    -3.439000000    -3.291000000
H     6.024000000    -2.855000000    -3.633000000
H     4.544000000    -2.919000000    -3.321000000
O    -0.931000000     0.305000000     4.939000000
H    -0.968000000    -0.298000000     4.196000000
H    -1.812000000     0.675000000     4.991000000
