158
-3009.19980
C    -0.658000000    -0.857000000    -1.003000000
H    -1.090000000    -1.567000000    -1.703000000
C    -0.925000000    -0.902000000     0.373000000
H    -1.679000000    -1.611000000     0.706000000
C    -0.171000000    -0.092000000     1.169000000
H    -0.247000000    -0.193000000     2.231000000
C     0.646000000     0.873000000     0.689000000
H     1.140000000     1.563000000     1.368000000
C     0.861000000     1.032000000    -0.689000000
H     1.589000000     1.756000000    -1.046000000
C     0.307000000     0.071000000    -1.534000000
C     0.545000000     0.138000000    -3.013000000
O     1.398000000     0.931000000    -3.370000000
O    -0.214000000    -0.404000000    -3.778000000
O     4.473000000     1.672000000    -0.456000000
H     4.176000000     0.956000000     0.107000000
H     5.403000000     1.769000000    -0.249000000
O     4.130000000     0.353000000    -5.742000000
H     3.614000000     1.104000000    -6.035000000
H     4.346000000     0.551000000    -4.831000000
O    -2.144000000     0.503000000    -6.661000000
H    -2.382000000     0.224000000    -5.777000000
H    -1.523000000    -0.160000000    -6.963000000
O    -0.345000000    -2.512000000     6.734000000
H    -0.966000000    -1.999000000     7.251000000
H     0.496000000    -2.073000000     6.864000000
O     3.744000000    -0.232000000     1.510000000
H     3.268000000    -0.923000000     1.050000000
H     3.154000000     0.037000000     2.214000000
O    -1.636000000    -5.897000000    -0.212000000
H    -2.066000000    -6.746000000    -0.318000000
H    -1.100000000    -5.997000000     0.575000000
O     2.108000000    -3.026000000     4.092000000
H     2.780000000    -2.949000000     4.770000000
H     1.551000000    -3.747000000     4.388000000
O    -3.519000000     2.289000000    -1.898000000
H    -2.905000000     2.426000000    -1.177000000
H    -3.233000000     2.902000000    -2.576000000
O     0.886000000     2.766000000     3.793000000
H     0.750000000     3.597000000     3.339000000
H     1.655000000     2.385000000     3.370000000
O    -1.248000000    -2.865000000    -4.166000000
H    -0.913000000    -1.980000000    -4.022000000
H    -1.002000000    -3.345000000    -3.375000000
O    -1.751000000    -1.982000000     4.084000000
H    -1.658000000    -1.032000000     4.145000000
H    -0.971000000    -2.328000000     4.517000000
O     3.016000000     3.204000000    -6.657000000
H     2.665000000     3.754000000    -7.358000000
H     2.256000000     2.727000000    -6.323000000
O    -0.562000000    -4.212000000     4.908000000
H    -1.144000000    -4.953000000     5.079000000
H    -0.587000000    -3.697000000     5.714000000
O    -0.400000000    -4.414000000    -2.071000000
H    -0.835000000    -4.825000000    -1.324000000
H     0.467000000    -4.176000000    -1.741000000
O    -5.524000000     1.573000000     3.299000000
H    -4.793000000     1.556000000     3.917000000
H    -5.758000000     0.653000000     3.179000000
O     3.881000000     3.276000000     4.679000000
H     4.371000000     3.353000000     5.498000000
H     3.031000000     2.922000000     4.940000000
O     0.027000000    -0.954000000    -7.711000000
H     0.730000000    -0.694000000    -8.305000000
H     0.460000000    -1.079000000    -6.866000000
O     0.952000000     1.625000000    -5.952000000
H     0.004000000     1.545000000    -6.053000000
H     1.124000000     1.328000000    -5.058000000
O    -4.578000000    -0.230000000     0.483000000
H    -5.075000000    -0.677000000     1.168000000
H    -3.971000000     0.337000000     0.960000000
O     1.092000000     5.180000000     2.367000000
H     1.884000000     4.665000000     2.215000000
H     1.374000000     5.889000000     2.945000000
O     0.393000000    -4.861000000    -5.545000000
H    -0.176000000    -4.093000000    -5.503000000
H     0.434000000    -5.078000000    -6.477000000
O    -5.441000000    -1.201000000     2.727000000
H    -4.950000000    -1.553000000     3.470000000
H    -6.178000000    -1.802000000     2.620000000
O    -4.039000000     1.094000000     5.331000000
H    -3.143000000     0.759000000     5.322000000
H    -3.962000000     1.974000000     5.701000000
O     1.862000000     3.654000000    -3.141000000
H     1.903000000     3.704000000    -2.186000000
H     1.762000000     2.720000000    -3.328000000
O     1.510000000    -1.317000000    -5.600000000
H     2.218000000    -0.673000000    -5.584000000
H     0.903000000    -1.022000000    -4.921000000
O     2.935000000     0.415000000     6.382000000
H     2.347000000     0.137000000     7.083000000
H     3.282000000     1.257000000     6.679000000
O    -1.410000000     2.836000000    -0.027000000
H    -1.032000000     1.990000000     0.212000000
H    -0.796000000     3.201000000    -0.665000000
O    -1.030000000     1.303000000     5.319000000
H    -0.351000000     1.690000000     4.767000000
H    -0.808000000     1.585000000     6.206000000
O     5.854000000    -1.773000000    -2.921000000
H     5.837000000    -2.137000000    -2.036000000
H     5.015000000    -1.320000000    -3.010000000
O     3.897000000     0.587000000    -2.884000000
H     2.979000000     0.692000000    -3.135000000
H     3.986000000     1.100000000    -2.082000000
O    -3.130000000    -5.827000000     2.850000000
H    -2.761000000    -6.628000000     2.479000000
H    -2.550000000    -5.131000000     2.541000000
O    -2.779000000    -4.747000000    -5.544000000
H    -3.222000000    -4.388000000    -6.312000000
H    -2.618000000    -3.988000000    -4.983000000
O     1.159000000     6.093000000    -4.502000000
H     1.194000000     5.144000000    -4.383000000
H     1.652000000     6.445000000    -3.760000000
O    -4.471000000    -0.985000000    -2.184000000
H    -4.466000000    -0.571000000    -1.321000000
H    -4.882000000    -1.837000000    -2.038000000
O     2.039000000    -0.124000000     3.668000000
H     2.357000000     0.118000000     4.538000000
H     1.775000000    -1.039000000     3.755000000
O    -2.999000000     0.057000000    -4.179000000
H    -3.430000000    -0.254000000    -3.383000000
H    -2.075000000     0.126000000    -3.940000000
O     4.293000000     4.817000000    -1.830000000
H     3.801000000     4.324000000    -2.486000000
H     3.860000000     5.670000000    -1.796000000
O    -4.436000000    -2.786000000     4.844000000
H    -4.458000000    -2.908000000     5.794000000
H    -3.559000000    -2.446000000     4.667000000
O    -3.470000000    -3.791000000     0.439000000
H    -2.589000000    -4.162000000     0.485000000
H    -4.038000000    -4.543000000     0.273000000
O    -5.892000000    -3.129000000    -0.779000000
H    -6.085000000    -4.062000000    -0.870000000
H    -5.248000000    -3.086000000    -0.072000000
O     2.765000000    -3.235000000    -7.030000000
H     2.736000000    -2.708000000    -7.829000000
H     2.410000000    -2.660000000    -6.351000000
O     2.991000000     3.275000000     1.984000000
H     3.456000000     2.897000000     1.237000000
H     3.600000000     3.183000000     2.716000000
O     1.898000000    -2.371000000     1.247000000
H     1.639000000    -2.428000000     2.166000000
H     1.145000000    -1.972000000     0.810000000
O     2.554000000    -4.006000000    -1.149000000
H     2.823000000    -3.244000000    -0.635000000
H     2.968000000    -4.749000000    -0.710000000
O    -0.553000000    -6.406000000    -3.664000000
H    -0.736000000    -5.619000000    -3.151000000
H    -0.095000000    -6.085000000    -4.441000000
O     0.768000000     4.596000000    -0.574000000
H     0.034000000     5.174000000    -0.786000000
H     1.165000000     4.989000000     0.203000000
O     2.602000000    -4.154000000    -4.114000000
H     1.795000000    -4.519000000    -4.476000000
H     2.405000000    -4.006000000    -3.189000000
O    -0.712000000    -4.888000000     2.138000000
H     0.138000000    -5.277000000     1.930000000
H    -0.567000000    -4.426000000     2.964000000
