158
-3045.59675
C     1.386000000     0.395000000     0.329000000
H     2.378000000     0.755000000     0.588000000
C     0.222000000     0.932000000     0.862000000
H     0.344000000     1.669000000     1.651000000
C    -1.056000000     0.412000000     0.535000000
H    -1.889000000     0.843000000     1.058000000
C    -1.153000000    -0.738000000    -0.273000000
H    -2.148000000    -1.133000000    -0.458000000
C     0.029000000    -1.226000000    -0.790000000
H     0.065000000    -2.079000000    -1.464000000
C     1.267000000    -0.630000000    -0.555000000
C     2.559000000    -1.156000000    -1.175000000
O     3.577000000    -0.493000000    -1.054000000
O     2.666000000    -2.248000000    -1.780000000
O    -0.155000000    -2.004000000     2.207000000
H    -1.044000000    -2.038000000     2.561000000
H    -0.238000000    -1.500000000     1.398000000
O    -6.502000000    -2.257000000    -1.621000000
H    -6.382000000    -2.112000000    -0.682000000
H    -7.121000000    -1.578000000    -1.890000000
O     6.318000000     2.962000000    -0.087000000
H     6.128000000     2.938000000    -1.025000000
H     5.921000000     2.163000000     0.258000000
O    -5.426000000     4.759000000     3.713000000
H    -5.342000000     3.813000000     3.592000000
H    -4.960000000     4.939000000     4.529000000
O     1.807000000     0.538000000    -4.538000000
H     2.264000000    -0.279000000    -4.740000000
H     1.570000000     0.897000000    -5.393000000
O     1.743000000    -4.576000000    -1.195000000
H     1.084000000    -4.627000000    -1.887000000
H     2.186000000    -3.741000000    -1.346000000
O     4.440000000    -4.334000000     1.671000000
H     3.487000000    -4.420000000     1.663000000
H     4.660000000    -4.019000000     0.794000000
O     3.724000000     4.375000000    -1.876000000
H     3.326000000     3.505000000    -1.849000000
H     4.504000000     4.265000000    -2.421000000
O     3.869000000     1.880000000     3.882000000
H     4.030000000     2.721000000     3.455000000
H     4.728000000     1.458000000     3.912000000
O     5.962000000     2.849000000    -3.087000000
H     6.711000000     2.257000000    -3.153000000
H     6.201000000     3.600000000    -3.631000000
O    -5.708000000    -1.735000000     0.960000000
H    -5.485000000    -2.355000000     1.654000000
H    -5.322000000    -0.907000000     1.246000000
O     1.875000000     6.192000000     3.461000000
H     1.215000000     5.535000000     3.682000000
H     1.410000000     6.824000000     2.912000000
O    -1.040000000     4.232000000     2.373000000
H    -1.067000000     3.276000000     2.420000000
H    -1.185000000     4.520000000     3.274000000
O    -1.728000000     5.901000000    -1.326000000
H    -2.150000000     5.453000000    -0.593000000
H    -2.454000000     6.218000000    -1.863000000
O    -5.399000000     2.038000000     4.616000000
H    -6.175000000     1.491000000     4.742000000
H    -5.437000000     2.674000000     5.330000000
O    -3.557000000    -3.791000000    -3.489000000
H    -2.667000000    -3.734000000    -3.836000000
H    -3.442000000    -4.058000000    -2.577000000
O    -0.585000000    -3.906000000    -3.170000000
H    -0.677000000    -2.972000000    -3.360000000
H    -0.220000000    -4.278000000    -3.974000000
O    -4.344000000     0.433000000     2.252000000
H    -4.338000000     1.165000000     1.636000000
H    -4.849000000     0.754000000     3.000000000
O     0.754000000    -0.213000000     4.715000000
H     0.789000000    -0.701000000     3.892000000
H     1.537000000    -0.491000000     5.191000000
O     4.839000000     0.833000000     0.742000000
H     4.185000000     1.392000000     1.161000000
H     4.359000000     0.382000000     0.048000000
O    -0.977000000    -1.289000000    -3.994000000
H    -0.133000000    -0.901000000    -4.223000000
H    -1.551000000    -0.538000000    -3.838000000
O     3.742000000     4.517000000     2.803000000
H     3.766000000     4.661000000     1.857000000
H     3.321000000     5.301000000     3.154000000
O     0.467000000     4.763000000    -0.023000000
H     0.068000000     4.650000000     0.840000000
H    -0.173000000     5.274000000    -0.517000000
O     4.032000000    -0.635000000    -6.802000000
H     3.747000000    -1.236000000    -6.113000000
H     4.832000000    -0.239000000    -6.458000000
O     3.299000000     5.442000000     0.387000000
H     2.356000000     5.525000000     0.530000000
H     3.378000000     5.123000000    -0.512000000
O     1.651000000    -4.087000000     1.682000000
H     1.232000000    -3.264000000     1.933000000
H     1.659000000    -4.070000000     0.725000000
O    -1.888000000    -5.517000000    -0.927000000
H    -1.562000000    -5.337000000    -1.809000000
H    -2.543000000    -4.837000000    -0.771000000
O     5.477000000    -1.125000000    -3.197000000
H     4.675000000    -1.094000000    -2.675000000
H     6.183000000    -1.041000000    -2.557000000
O     6.314000000     0.020000000    -5.462000000
H     6.891000000    -0.718000000    -5.659000000
H     6.019000000    -0.140000000    -4.565000000
O    -2.722000000    -1.688000000     3.414000000
H    -3.085000000    -0.990000000     2.868000000
H    -3.464000000    -2.269000000     3.583000000
O    -4.480000000     2.341000000     0.429000000
H    -4.055000000     3.165000000     0.667000000
H    -5.379000000     2.589000000     0.214000000
O     3.457000000    -5.342000000    -4.822000000
H     3.852000000    -5.087000000    -5.655000000
H     3.936000000    -4.837000000    -4.165000000
O    -5.753000000     1.318000000    -4.022000000
H    -6.237000000     0.607000000    -3.601000000
H    -4.953000000     1.403000000    -3.504000000
O     3.226000000    -7.287000000    -1.206000000
H     2.825000000    -6.577000000    -0.704000000
H     4.137000000    -7.017000000    -1.318000000
O     5.459000000    -3.971000000    -3.809000000
H     5.375000000    -3.026000000    -3.685000000
H     6.330000000    -4.181000000    -3.472000000
O    -1.357000000     1.920000000    -4.979000000
H    -0.898000000     1.864000000    -4.141000000
H    -2.273000000     1.749000000    -4.762000000
O     1.356000000     3.128000000     4.681000000
H     1.556000000     3.146000000     5.617000000
H     2.190000000     2.914000000     4.262000000
O    -0.921000000     2.041000000     4.394000000
H    -0.672000000     1.133000000     4.222000000
H    -0.107000000     2.465000000     4.665000000
O    -0.441000000     1.484000000    -2.458000000
H     0.191000000     2.198000000    -2.541000000
H    -0.108000000     0.953000000    -1.734000000
O     5.213000000    -1.131000000     2.952000000
H     4.921000000    -0.641000000     2.184000000
H     5.586000000    -0.468000000     3.532000000
O     5.088000000    -2.962000000    -0.724000000
H     5.629000000    -2.188000000    -0.566000000
H     4.300000000    -2.620000000    -1.148000000
O    -3.199000000     1.857000000    -2.462000000
H    -3.388000000     2.168000000    -1.577000000
H    -2.298000000     1.536000000    -2.416000000
O     7.580000000    -1.489000000    -1.285000000
H     8.352000000    -1.310000000    -1.822000000
H     7.754000000    -1.039000000    -0.458000000
O    -3.227000000     3.727000000     6.092000000
H    -2.535000000     3.066000000     6.122000000
H    -2.811000000     4.492000000     5.696000000
O     2.623000000     1.901000000    -2.339000000
H     2.936000000     1.151000000    -1.833000000
H     2.584000000     1.582000000    -3.240000000
O    -3.971000000    -3.778000000    -0.594000000
H    -4.708000000    -3.257000000    -0.910000000
H    -3.969000000    -3.641000000     0.354000000
O     2.356000000    -1.965000000    -4.498000000
H     2.244000000    -1.993000000    -3.548000000
H     2.293000000    -2.879000000    -4.775000000
O    -3.066000000     5.027000000     0.744000000
H    -3.360000000     5.888000000     1.041000000
H    -2.455000000     4.737000000     1.421000000
