158
-3051.40563
C     0.807000000     0.173000000    -1.201000000
H     1.263000000     0.523000000    -2.123000000
C    -0.525000000     0.135000000    -1.166000000
H    -1.116000000     0.423000000    -2.032000000
C    -1.208000000    -0.014000000     0.037000000
H    -2.297000000    -0.001000000     0.128000000
C    -0.501000000    -0.259000000     1.213000000
H    -1.057000000    -0.445000000     2.129000000
C     0.895000000    -0.271000000     1.186000000
H     1.433000000    -0.458000000     2.111000000
C     1.543000000    -0.045000000    -0.048000000
C     3.107000000     0.025000000    -0.120000000
O     3.587000000     0.253000000    -1.182000000
O     3.730000000    -0.352000000     0.836000000
O    -3.577000000    -4.621000000     1.197000000
H    -3.422000000    -3.847000000     1.738000000
H    -2.706000000    -4.989000000     1.049000000
O     1.818000000     3.405000000    -1.043000000
H     2.594000000     3.283000000    -0.496000000
H     1.095000000     3.476000000    -0.421000000
O     4.858000000    -1.577000000     4.713000000
H     4.206000000    -1.733000000     4.030000000
H     5.368000000    -2.387000000     4.747000000
O     0.660000000    -2.851000000     2.888000000
H     0.676000000    -2.990000000     3.835000000
H    -0.258000000    -2.672000000     2.688000000
O    -0.804000000    -5.443000000     1.245000000
H    -0.279000000    -6.241000000     1.178000000
H    -0.188000000    -4.735000000     1.055000000
O     6.330000000    -3.472000000     2.026000000
H     5.597000000    -2.951000000     2.354000000
H     6.587000000    -3.038000000     1.212000000
O     0.431000000    -1.751000000    -4.741000000
H     1.012000000    -1.110000000    -4.331000000
H     1.021000000    -2.383000000    -5.150000000
O     7.148000000     3.974000000    -2.721000000
H     6.947000000     3.988000000    -3.656000000
H     6.874000000     3.105000000    -2.430000000
O     2.821000000     1.311000000    -5.248000000
H     2.892000000     1.495000000    -6.185000000
H     2.825000000     2.174000000    -4.834000000
O     7.648000000    -2.083000000    -0.239000000
H     8.474000000    -2.387000000     0.138000000
H     7.897000000    -1.346000000    -0.797000000
O     3.237000000    -2.222000000     2.785000000
H     3.353000000    -1.594000000     2.072000000
H     2.328000000    -2.509000000     2.706000000
O     4.367000000     1.038000000     3.313000000
H     4.304000000     0.122000000     3.042000000
H     5.188000000     1.087000000     3.803000000
O    -2.775000000     1.418000000    -3.991000000
H    -2.767000000     1.297000000    -3.042000000
H    -1.950000000     1.864000000    -4.183000000
O    -5.687000000    -1.033000000     1.009000000
H    -6.635000000    -1.163000000     1.017000000
H    -5.347000000    -1.715000000     1.588000000
O     3.551000000    -3.382000000    -2.467000000
H     4.295000000    -3.350000000    -1.866000000
H     3.503000000    -2.501000000    -2.836000000
O    -5.453000000    -0.136000000     4.496000000
H    -6.360000000    -0.203000000     4.196000000
H    -5.094000000     0.607000000     4.011000000
O     1.264000000    -0.789000000     6.454000000
H     2.094000000    -0.319000000     6.532000000
H     0.761000000    -0.514000000     7.221000000
O    -4.901000000     1.457000000     2.016000000
H    -5.271000000     0.592000000     1.839000000
H    -4.746000000     1.833000000     1.150000000
O     3.728000000     2.483000000    -2.864000000
H     2.978000000     3.018000000    -2.605000000
H     3.822000000     1.844000000    -2.157000000
O     0.328000000     4.227000000     1.449000000
H     0.461000000     4.252000000     2.397000000
H    -0.509000000     4.670000000     1.313000000
O    -3.771000000     2.439000000    -0.260000000
H    -4.117000000     3.329000000    -0.329000000
H    -2.820000000     2.552000000    -0.259000000
O     1.537000000    -3.645000000    -0.277000000
H     2.248000000    -3.495000000    -0.900000000
H     1.967000000    -4.020000000     0.492000000
O    -1.165000000    -2.755000000    -0.403000000
H    -1.268000000    -1.821000000    -0.221000000
H    -0.233000000    -2.925000000    -0.267000000
O     3.201000000    -0.834000000    -3.500000000
H     3.264000000    -0.420000000    -2.639000000
H     3.298000000    -0.112000000    -4.121000000
O     5.304000000     0.219000000    -5.822000000
H     4.506000000     0.733000000    -5.699000000
H     6.000000000     0.766000000    -5.457000000
O    -0.711000000    -2.204000000     5.117000000
H    -1.496000000    -1.664000000     5.204000000
H    -0.037000000    -1.728000000     5.602000000
O     6.837000000    -0.215000000     1.750000000
H     6.548000000    -0.064000000     0.850000000
H     6.183000000     0.231000000     2.289000000
O    -4.443000000    -2.448000000     3.295000000
H    -4.716000000    -3.291000000     3.656000000
H    -4.885000000    -1.799000000     3.842000000
O    -1.172000000     3.101000000    -0.959000000
H    -0.876000000     4.009000000    -0.898000000
H    -0.689000000     2.645000000    -0.269000000
O    -6.724000000     3.302000000    -0.699000000
H    -6.300000000     4.150000000    -0.829000000
H    -6.389000000     2.755000000    -1.409000000
O    -1.474000000    -0.519000000    -6.071000000
H    -1.970000000    -0.106000000    -5.363000000
H    -0.694000000    -0.870000000    -5.642000000
O     6.300000000     0.548000000    -0.977000000
H     6.541000000     0.566000000    -1.903000000
H     5.407000000     0.202000000    -0.970000000
O     1.568000000     1.313000000     4.298000000
H     1.507000000     0.479000000     4.764000000
H     2.468000000     1.342000000     3.974000000
O    -1.816000000    -3.373000000    -4.323000000
H    -0.906000000    -3.105000000    -4.196000000
H    -2.329000000    -2.690000000    -3.891000000
O     5.035000000    -2.525000000    -0.429000000
H     4.649000000    -1.670000000    -0.238000000
H     5.967000000    -2.345000000    -0.552000000
O     8.476000000     2.006000000     0.598000000
H     7.824000000     1.335000000     0.392000000
H     7.989000000     2.670000000     1.085000000
O    -2.587000000     1.701000000     3.473000000
H    -2.624000000     0.815000000     3.832000000
H    -3.397000000     1.789000000     2.969000000
O    -4.695000000     5.189000000    -0.318000000
H    -4.738000000     5.771000000    -1.076000000
H    -4.173000000     5.670000000     0.324000000
O    -3.546000000    -1.340000000    -3.296000000
H    -4.097000000    -1.022000000    -2.581000000
H    -3.436000000    -0.581000000    -3.869000000
O     3.220000000     2.791000000     1.434000000
H     3.799000000     2.148000000     1.842000000
H     2.386000000     2.687000000     1.892000000
O     3.811000000    -4.837000000     0.838000000
H     4.365000000    -4.151000000     0.464000000
H     4.239000000    -5.067000000     1.663000000
O    -6.012000000    -4.004000000    -0.124000000
H    -5.223000000    -4.246000000     0.362000000
H    -5.805000000    -4.213000000    -1.035000000
O    -1.291000000     3.658000000     4.975000000
H    -0.864000000     3.199000000     5.699000000
H    -1.594000000     2.960000000     4.394000000
O    -4.861000000     0.207000000    -1.419000000
H    -4.975000000    -0.437000000    -0.721000000
H    -4.507000000     0.979000000    -0.977000000
O    -5.076000000     2.941000000    -3.543000000
H    -4.343000000     2.332000000    -3.634000000
H    -5.711000000     2.652000000    -4.198000000
O    -0.276000000     2.803000000    -3.621000000
H     0.495000000     3.312000000    -3.872000000
H    -0.169000000     2.655000000    -2.681000000
O    -2.606000000    -4.678000000    -1.483000000
H    -2.198000000    -3.928000000    -1.050000000
H    -2.985000000    -4.316000000    -2.283000000
O    -2.596000000    -0.145000000     5.494000000
H    -3.468000000    -0.480000000     5.704000000
H    -2.438000000     0.537000000     6.146000000
