158
-3050.72431
C     1.309000000     0.777000000    -0.131000000
H     2.192000000     1.399000000    -0.251000000
C     0.124000000     1.266000000     0.474000000
H     0.130000000     2.292000000     0.835000000
C    -1.037000000     0.450000000     0.450000000
H    -1.943000000     0.821000000     0.926000000
C    -0.989000000    -0.843000000     0.079000000
H    -1.847000000    -1.499000000     0.203000000
C     0.154000000    -1.358000000    -0.549000000
H     0.190000000    -2.351000000    -0.990000000
C     1.321000000    -0.551000000    -0.637000000
C     2.530000000    -1.136000000    -1.328000000
O     3.430000000    -0.364000000    -1.667000000
O     2.597000000    -2.330000000    -1.592000000
O    -3.090000000    -5.153000000    -1.016000000
H    -2.197000000    -5.367000000    -1.285000000
H    -3.136000000    -4.199000000    -1.072000000
O     3.769000000     2.265000000    -2.127000000
H     3.471000000     1.388000000    -1.885000000
H     4.023000000     2.187000000    -3.047000000
O     5.839000000    -5.224000000     0.477000000
H     5.239000000    -5.425000000     1.195000000
H     5.830000000    -4.268000000     0.418000000
O     1.287000000     4.107000000    -3.909000000
H     1.908000000     4.276000000    -3.201000000
H     0.836000000     3.305000000    -3.645000000
O     0.009000000    -1.548000000    -5.084000000
H     0.445000000    -2.244000000    -4.592000000
H     0.676000000    -0.868000000    -5.179000000
O    -0.545000000    -5.439000000    -1.928000000
H     0.145000000    -5.194000000    -1.311000000
H    -0.382000000    -4.893000000    -2.697000000
O     0.277000000    -3.194000000     2.217000000
H    -0.653000000    -2.989000000     2.311000000
H     0.727000000    -2.384000000     2.456000000
O     1.406000000     5.110000000    -0.762000000
H     0.870000000     5.403000000    -1.498000000
H     1.583000000     5.907000000    -0.263000000
O    -1.474000000    -0.099000000    -3.243000000
H    -2.322000000     0.173000000    -3.594000000
H    -1.087000000    -0.630000000    -3.939000000
O    -5.970000000    -3.128000000     2.879000000
H    -5.766000000    -3.892000000     2.339000000
H    -5.244000000    -2.525000000     2.724000000
O     1.292000000     1.024000000     3.240000000
H     1.585000000     0.881000000     2.340000000
H     2.097000000     1.196000000     3.729000000
O    -4.832000000     0.750000000     5.276000000
H    -3.994000000     1.050000000     4.926000000
H    -5.317000000     1.554000000     5.459000000
O     4.880000000     5.395000000    -1.732000000
H     5.349000000     5.036000000    -2.486000000
H     4.087000000     4.863000000    -1.668000000
O     4.610000000     3.159000000     0.144000000
H     4.307000000     2.678000000    -0.626000000
H     4.790000000     4.041000000    -0.180000000
O    -5.101000000    -5.092000000     1.252000000
H    -5.250000000    -6.006000000     1.493000000
H    -4.513000000    -5.136000000     0.498000000
O    -2.327000000     3.107000000    -0.525000000
H    -2.753000000     2.899000000    -1.357000000
H    -1.622000000     2.463000000    -0.449000000
O    -0.880000000     6.650000000     0.998000000
H    -0.667000000     6.044000000     1.707000000
H    -0.466000000     7.474000000     1.254000000
O    -0.852000000    -0.673000000     4.152000000
H    -1.449000000    -0.921000000     3.446000000
H    -0.154000000    -0.185000000     3.714000000
O    -4.569000000     1.524000000     0.947000000
H    -4.921000000     2.304000000     1.375000000
H    -3.631000000     1.699000000     0.864000000
O    -2.401000000    -2.634000000     2.590000000
H    -3.154000000    -2.055000000     2.710000000
H    -2.771000000    -3.516000000     2.610000000
O     1.759000000     0.643000000    -5.110000000
H     1.597000000     1.147000000    -4.313000000
H     2.562000000     1.019000000    -5.472000000
O     4.675000000     3.905000000     3.231000000
H     4.781000000     4.733000000     3.699000000
H     4.124000000     4.124000000     2.479000000
O    -2.430000000    -3.102000000    -2.933000000
H    -2.651000000    -3.117000000    -3.864000000
H    -2.070000000    -2.228000000    -2.785000000
O     2.371000000     3.593000000     1.307000000
H     1.869000000     3.996000000     0.599000000
H     3.180000000     3.298000000     0.890000000
O    -0.466000000     5.463000000     3.331000000
H    -1.156000000     4.866000000     3.620000000
H     0.323000000     5.149000000     3.771000000
O     4.234000000    -1.617000000    -5.745000000
H     4.982000000    -2.169000000    -5.971000000
H     4.580000000    -0.993000000    -5.106000000
O     2.513000000     5.941000000     3.365000000
H     2.456000000     5.048000000     3.024000000
H     2.627000000     6.487000000     2.587000000
O     1.496000000    -5.017000000     0.103000000
H     1.016000000    -4.570000000     0.801000000
H     1.621000000    -4.347000000    -0.569000000
O     5.493000000    -0.549000000    -3.380000000
H     4.712000000    -0.585000000    -2.827000000
H     6.169000000    -0.174000000    -2.815000000
O    -8.088000000     0.257000000     1.365000000
H    -8.036000000     1.030000000     1.927000000
H    -7.222000000    -0.145000000     1.428000000
O     4.451000000     0.352000000     1.686000000
H     4.795000000    -0.123000000     0.929000000
H     4.683000000     1.266000000     1.520000000
O    -6.693000000     0.796000000    -2.073000000
H    -7.052000000     1.674000000    -1.941000000
H    -7.453000000     0.217000000    -2.017000000
O     5.703000000    -5.523000000    -2.194000000
H     6.614000000    -5.382000000    -2.450000000
H     5.731000000    -5.594000000    -1.239000000
O     3.161000000    -5.549000000    -2.936000000
H     2.766000000    -4.926000000    -3.546000000
H     3.939000000    -5.102000000    -2.605000000
O    -0.601000000    -2.842000000     5.872000000
H    -0.208000000    -3.485000000     5.282000000
H    -0.614000000    -2.029000000     5.367000000
O    -4.067000000     2.823000000    -2.505000000
H    -3.812000000     2.426000000    -3.338000000
H    -4.899000000     2.404000000    -2.284000000
O    -3.372000000     5.327000000     0.696000000
H    -3.068000000     4.454000000     0.445000000
H    -2.590000000     5.877000000     0.645000000
O    -0.150000000     2.747000000     4.716000000
H     0.355000000     2.084000000     4.246000000
H     0.509000000     3.274000000     5.168000000
O    -2.740000000     2.120000000     3.956000000
H    -3.064000000     3.004000000     3.786000000
H    -1.829000000     2.246000000     4.221000000
O     0.232000000     1.868000000    -2.751000000
H    -0.290000000     1.130000000    -3.066000000
H     0.039000000     1.917000000    -1.815000000
O     7.465000000     0.756000000    -2.121000000
H     7.427000000     1.711000000    -2.074000000
H     8.114000000     0.574000000    -2.801000000
O     5.599000000    -2.444000000    -0.600000000
H     5.966000000    -2.788000000    -1.415000000
H     4.791000000    -2.006000000    -0.867000000
O    -5.705000000     3.972000000     1.087000000
H    -4.912000000     4.509000000     1.062000000
H    -6.409000000     4.593000000     1.274000000
O    -4.681000000    -1.298000000    -2.004000000
H    -5.132000000    -0.461000000    -1.893000000
H    -5.237000000    -1.931000000    -1.551000000
O     7.417000000    -2.169000000     1.464000000
H     7.789000000    -1.304000000     1.293000000
H     6.737000000    -2.273000000     0.798000000
O    -4.342000000    -0.771000000     2.790000000
H    -4.606000000    -0.373000000     3.620000000
H    -4.481000000    -0.083000000     2.140000000
O    -6.156000000    -3.262000000    -0.650000000
H    -5.785000000    -3.770000000     0.072000000
H    -6.944000000    -2.863000000    -0.281000000
O     2.672000000    -3.204000000    -4.064000000
H     2.722000000    -2.852000000    -3.175000000
H     3.324000000    -2.705000000    -4.555000000
