158
-3056.06051
C     1.304000000     0.452000000    -0.559000000
H     2.192000000     0.918000000    -0.979000000
C     0.727000000     0.945000000     0.600000000
H     1.167000000     1.792000000     1.121000000
C    -0.429000000     0.360000000     1.121000000
H    -0.918000000     0.644000000     2.089000000
C    -1.158000000    -0.603000000     0.346000000
H    -2.117000000    -0.988000000     0.682000000
C    -0.541000000    -1.048000000    -0.874000000
H    -1.137000000    -1.772000000    -1.424000000
C     0.695000000    -0.589000000    -1.329000000
C     1.184000000    -0.973000000    -2.728000000
O     2.072000000    -0.330000000    -3.360000000
O     0.707000000    -1.980000000    -3.274000000
O    -1.086000000    -4.430000000    -1.969000000
H    -1.969000000    -4.220000000    -2.274000000
H    -0.529000000    -4.288000000    -2.735000000
O     2.869000000    -0.889000000    -5.914000000
H     2.484000000    -0.862000000    -5.038000000
H     2.599000000    -1.737000000    -6.268000000
O     4.160000000     3.252000000     1.546000000
H     4.110000000     2.327000000     1.790000000
H     5.057000000     3.508000000     1.760000000
O    -2.507000000     2.967000000    -0.155000000
H    -2.039000000     3.767000000     0.084000000
H    -2.020000000     2.619000000    -0.902000000
O     3.778000000    -0.527000000     0.670000000
H     4.185000000    -1.075000000    -0.001000000
H     3.023000000    -1.035000000     0.969000000
O     1.551000000     4.156000000    -2.405000000
H     0.668000000     3.816000000    -2.258000000
H     1.425000000     4.908000000    -2.983000000
O    -3.938000000     0.705000000    -3.942000000
H    -3.008000000     0.480000000    -3.905000000
H    -4.250000000     0.298000000    -4.750000000
O    -1.966000000    -5.029000000     2.694000000
H    -2.251000000    -4.158000000     2.969000000
H    -1.302000000    -4.864000000     2.025000000
O     4.825000000    -2.600000000    -0.775000000
H     5.605000000    -3.148000000    -0.687000000
H     4.100000000    -3.173000000    -0.525000000
O     3.605000000     4.908000000    -0.582000000
H     2.784000000     4.742000000    -1.044000000
H     3.552000000     4.364000000     0.204000000
O     1.518000000    -2.187000000     1.946000000
H     1.278000000    -2.649000000     2.750000000
H     0.915000000    -1.444000000     1.908000000
O    -3.665000000     3.926000000     4.586000000
H    -2.988000000     3.736000000     3.937000000
H    -3.776000000     4.876000000     4.546000000
O    -4.427000000     4.706000000     1.558000000
H    -3.727000000     4.136000000     1.239000000
H    -3.990000000     5.307000000     2.161000000
O     4.992000000     0.805000000     2.593000000
H     4.635000000     0.613000000     3.460000000
H     4.590000000     0.153000000     2.019000000
O    -3.059000000    -2.660000000     3.136000000
H    -2.501000000    -1.962000000     3.478000000
H    -3.856000000    -2.213000000     2.851000000
O     1.490000000     3.747000000    -6.371000000
H     1.661000000     2.809000000    -6.279000000
H     1.927000000     3.991000000    -7.187000000
O     5.241000000     1.193000000    -1.740000000
H     4.619000000     0.544000000    -1.410000000
H     4.738000000     1.708000000    -2.370000000
O    -2.755000000    -4.523000000    -4.937000000
H    -2.981000000    -4.165000000    -5.796000000
H    -1.799000000    -4.492000000    -4.908000000
O     5.113000000     0.587000000    -5.763000000
H     4.658000000     1.260000000    -5.256000000
H     4.417000000     0.006000000    -6.068000000
O     0.841000000     2.941000000     4.316000000
H     1.556000000     2.550000000     4.817000000
H     0.099000000     2.946000000     4.921000000
O    -4.559000000    -4.916000000     1.063000000
H    -3.714000000    -4.972000000     1.510000000
H    -4.489000000    -5.539000000     0.339000000
O     2.195000000    -3.773000000    -2.032000000
H     1.583000000    -3.311000000    -2.605000000
H     2.963000000    -3.932000000    -2.581000000
O     2.085000000     1.037000000    -7.665000000
H     2.879000000     0.971000000    -8.197000000
H     2.255000000     0.473000000    -6.910000000
O    -6.066000000    -2.236000000     0.311000000
H    -5.744000000    -1.755000000     1.073000000
H    -5.759000000    -3.133000000     0.446000000
O    -1.602000000    -0.446000000    -4.155000000
H    -0.984000000    -0.919000000    -3.598000000
H    -1.548000000    -0.888000000    -5.002000000
O    -2.574000000     0.016000000     4.562000000
H    -2.250000000     0.561000000     5.279000000
H    -3.478000000     0.301000000     4.434000000
O    -2.479000000     2.165000000     6.087000000
H    -2.252000000     2.466000000     6.967000000
H    -2.818000000     2.945000000     5.647000000
O     5.064000000    -1.125000000    -3.630000000
H     4.108000000    -1.108000000    -3.586000000
H     5.282000000    -0.506000000    -4.326000000
O    -1.817000000     3.505000000     2.898000000
H    -1.046000000     2.981000000     3.117000000
H    -1.494000000     4.158000000     2.277000000
O    -4.868000000    -0.799000000     2.318000000
H    -4.540000000    -0.033000000     1.847000000
H    -4.991000000    -0.494000000     3.217000000
O     0.465000000    -0.313000000     4.796000000
H     0.245000000    -1.236000000     4.925000000
H    -0.362000000     0.097000000     4.542000000
O    -4.955000000     1.344000000     4.260000000
H    -5.707000000     1.577000000     3.716000000
H    -4.370000000     2.098000000     4.197000000
O    -4.068000000     1.020000000     0.611000000
H    -3.284000000     1.568000000     0.578000000
H    -4.617000000     1.344000000    -0.102000000
O     2.943000000     2.315000000     5.886000000
H     3.041000000     1.363000000     5.868000000
H     3.838000000     2.647000000     5.963000000
O     1.641000000     4.198000000     1.936000000
H     1.407000000     3.511000000     2.560000000
H     2.453000000     3.890000000     1.533000000
O    -1.110000000     2.774000000    -2.987000000
H    -0.946000000     1.907000000    -3.358000000
H    -1.229000000     3.342000000    -3.748000000
O     3.154000000     1.852000000    -3.750000000
H     2.529000000     2.471000000    -3.373000000
H     2.700000000     1.010000000    -3.726000000
O     2.275000000    -3.523000000    -6.690000000
H     1.665000000    -3.322000000    -7.400000000
H     3.126000000    -3.601000000    -7.121000000
O     4.218000000    -3.666000000    -4.157000000
H     4.154000000    -3.753000000    -5.108000000
H     4.516000000    -2.766000000    -4.019000000
O    -0.173000000    -3.132000000     5.174000000
H     0.393000000    -3.521000000     4.508000000
H    -0.797000000    -3.824000000     5.392000000
O     3.272000000    -0.224000000     4.591000000
H     3.509000000    -1.055000000     5.002000000
H     2.343000000    -0.316000000     4.381000000
O    -1.081000000    -1.534000000    -6.624000000
H    -1.848000000    -2.029000000    -6.911000000
H    -0.385000000    -2.188000000    -6.558000000
O    -4.585000000    -1.985000000    -2.691000000
H    -4.229000000    -1.351000000    -3.314000000
H    -4.387000000    -1.614000000    -1.832000000
O     1.714000000    -6.427000000    -1.425000000
H     2.665000000    -6.528000000    -1.393000000
H     1.578000000    -5.506000000    -1.648000000
O    -0.074000000    -4.366000000     1.021000000
H     0.622000000    -3.716000000     0.927000000
H    -0.473000000    -4.418000000     0.153000000
O    -1.377000000     5.319000000     0.816000000
H    -1.662000000     6.186000000     1.106000000
H    -0.599000000     5.489000000     0.284000000
O     0.127000000    -4.143000000    -4.736000000
H     0.350000000    -3.366000000    -4.224000000
H     0.811000000    -4.195000000    -5.402000000
O    -2.592000000    -1.673000000     6.809000000
H    -2.696000000    -2.595000000     6.576000000
H    -1.698000000    -1.458000000     6.543000000
