158
-3030.46030
C     1.437000000    -0.060000000    -0.435000000
H     2.512000000    -0.171000000    -0.548000000
C     1.002000000     0.238000000     0.864000000
H     1.745000000     0.381000000     1.644000000
C    -0.394000000     0.367000000     1.120000000
H    -0.763000000     0.564000000     2.181000000
C    -1.286000000     0.109000000     0.049000000
H    -2.367000000     0.164000000     0.147000000
C    -0.851000000    -0.182000000    -1.197000000
H    -1.584000000    -0.298000000    -1.990000000
C     0.527000000    -0.340000000    -1.458000000
C     1.016000000    -0.712000000    -2.829000000
O     2.065000000    -1.325000000    -2.886000000
O     0.217000000    -0.804000000    -3.741000000
O     5.108000000    -3.620000000    -4.694000000
H     5.900000000    -4.157000000    -4.728000000
H     4.953000000    -3.366000000    -5.604000000
O     1.633000000    -3.462000000    -5.215000000
H     2.034000000    -3.947000000    -4.494000000
H     1.348000000    -2.637000000    -4.820000000
O     3.764000000     3.635000000    -0.214000000
H     4.032000000     2.720000000    -0.132000000
H     4.288000000     4.098000000     0.440000000
O    -1.741000000    -3.723000000     2.090000000
H    -1.217000000    -3.484000000     1.326000000
H    -1.649000000    -2.980000000     2.686000000
O     4.614000000    -1.749000000     0.497000000
H     4.467000000    -1.888000000    -0.439000000
H     3.891000000    -2.208000000     0.924000000
O    -2.014000000     3.161000000    -1.634000000
H    -1.580000000     3.950000000    -1.310000000
H    -2.682000000     2.967000000    -0.976000000
O     4.573000000    -1.743000000    -2.354000000
H     4.783000000    -2.456000000    -2.958000000
H     3.688000000    -1.473000000    -2.602000000
O     3.077000000    -5.311000000    -3.852000000
H     3.457000000    -5.938000000    -3.235000000
H     3.825000000    -4.982000000    -4.350000000
O    -5.150000000     2.848000000    -2.935000000
H    -4.264000000     2.525000000    -3.096000000
H    -5.093000000     3.791000000    -3.090000000
O     2.492000000    -2.875000000     1.849000000
H     2.260000000    -3.016000000     2.767000000
H     1.658000000    -2.919000000     1.382000000
O     4.049000000     1.780000000    -2.679000000
H     3.803000000     0.871000000    -2.853000000
H     4.949000000     1.727000000    -2.358000000
O     0.155000000    -3.230000000     0.358000000
H    -0.190000000    -2.432000000    -0.042000000
H     0.652000000    -3.653000000    -0.342000000
O    -1.442000000     3.282000000     1.825000000
H    -1.150000000     4.102000000     1.426000000
H    -0.892000000     2.610000000     1.422000000
O    -3.966000000     3.229000000     0.693000000
H    -4.623000000     3.348000000     1.379000000
H    -3.200000000     2.885000000     1.151000000
O     4.821000000     0.790000000     1.217000000
H     4.348000000     0.772000000     2.049000000
H     4.785000000    -0.113000000     0.901000000
O     0.671000000     1.374000000     4.686000000
H     0.500000000     2.303000000     4.838000000
H    -0.196000000     0.988000000     4.562000000
O     0.741000000     0.662000000    -5.902000000
H     1.234000000    -0.077000000    -6.258000000
H     0.302000000     0.307000000    -5.129000000
O     2.972000000     3.745000000     3.780000000
H     2.096000000     3.701000000     4.163000000
H     2.941000000     3.141000000     3.038000000
O    -0.725000000    -1.903000000    -8.783000000
H    -0.683000000    -2.815000000    -9.071000000
H    -1.336000000    -1.912000000    -8.047000000
O    -0.046000000    -6.246000000    -2.070000000
H    -0.198000000    -6.013000000    -1.154000000
H     0.553000000    -5.572000000    -2.392000000
O     0.388000000     2.549000000    -7.783000000
H    -0.283000000     2.081000000    -8.280000000
H     0.664000000     1.927000000    -7.110000000
O     2.201000000    -3.750000000     4.691000000
H     1.322000000    -3.388000000     4.805000000
H     2.740000000    -3.273000000     5.321000000
O     0.440000000     4.019000000     5.010000000
H    -0.107000000     4.774000000     4.794000000
H     0.540000000     4.060000000     5.961000000
O    -3.717000000     1.361000000    -5.490000000
H    -3.366000000     0.748000000    -6.135000000
H    -2.958000000     1.869000000    -5.204000000
O     3.053000000    -2.156000000    -7.284000000
H     3.670000000    -2.801000000    -7.631000000
H     2.505000000    -2.651000000    -6.675000000
O    -2.038000000     2.045000000     4.315000000
H    -1.873000000     2.677000000     3.616000000
H    -2.962000000     1.814000000     4.216000000
O     1.857000000    -3.810000000    -1.971000000
H     2.175000000    -2.948000000    -2.239000000
H     2.398000000    -4.428000000    -2.463000000
O    -2.037000000     3.341000000     6.857000000
H    -2.496000000     2.667000000     7.359000000
H    -1.952000000     2.970000000     5.979000000
O    -1.588000000    -1.473000000     3.670000000
H    -2.282000000    -1.103000000     3.123000000
H    -1.647000000    -0.986000000     4.492000000
O    -4.406000000    -0.346000000    -3.316000000
H    -3.706000000    -0.938000000    -3.593000000
H    -4.456000000     0.309000000    -4.013000000
O    -6.408000000    -0.201000000     1.515000000
H    -6.497000000     0.468000000     0.836000000
H    -7.147000000    -0.046000000     2.103000000
O    -4.319000000    -1.623000000    -0.980000000
H    -4.446000000    -1.303000000    -1.873000000
H    -4.844000000    -1.034000000    -0.438000000
O     2.498000000     1.907000000     7.249000000
H     3.300000000     2.171000000     6.799000000
H     1.914000000     1.619000000     6.548000000
O    -1.656000000     2.905000000    -4.220000000
H    -1.762000000     2.801000000    -3.274000000
H    -0.734000000     3.135000000    -4.334000000
O    -2.699000000    -0.832000000    -6.947000000
H    -2.756000000    -1.007000000    -6.008000000
H    -3.270000000    -1.487000000    -7.348000000
O     1.241000000     3.024000000    -3.964000000
H     2.031000000     2.840000000    -3.455000000
H     1.142000000     2.263000000    -4.536000000
O    -1.762000000    -4.375000000    -6.603000000
H    -1.088000000    -4.622000000    -5.971000000
H    -2.339000000    -3.784000000    -6.120000000
O    -4.244000000    -0.209000000     3.041000000
H    -4.850000000     0.112000000     2.374000000
H    -4.805000000    -0.444000000     3.781000000
O     7.370000000    -2.420000000     0.146000000
H     6.458000000    -2.257000000     0.384000000
H     7.486000000    -1.962000000    -0.687000000
O     3.239000000     0.756000000     3.532000000
H     2.412000000     0.759000000     4.013000000
H     3.853000000     0.308000000     4.115000000
O    -3.541000000    -3.300000000     5.958000000
H    -3.270000000    -2.448000000     5.616000000
H    -3.893000000    -3.763000000     5.197000000
O    -5.211000000    -2.812000000     1.430000000
H    -5.835000000    -2.143000000     1.711000000
H    -4.704000000    -2.390000000     0.737000000
O    -0.546000000    -3.333000000     5.296000000
H    -0.610000000    -2.841000000     4.478000000
H    -1.298000000    -3.041000000     5.811000000
O     7.146000000    -1.208000000    -2.286000000
H     7.311000000    -0.807000000    -3.140000000
H     6.198000000    -1.344000000    -2.265000000
O    -5.274000000     1.222000000    -0.609000000
H    -5.133000000     1.883000000     0.068000000
H    -5.122000000     1.686000000    -1.432000000
O    -2.453000000    -3.355000000    -2.136000000
H    -3.011000000    -2.698000000    -1.720000000
H    -3.002000000    -4.138000000    -2.187000000
O    -2.139000000    -1.915000000    -4.521000000
H    -2.219000000    -2.734000000    -4.032000000
H    -1.302000000    -1.548000000    -4.238000000
O    -1.913000000    -0.593000000     6.210000000
H    -2.517000000     0.079000000     6.525000000
H    -1.700000000    -1.108000000     6.989000000
