158
-3051.27379
C     0.696000000     1.134000000    -0.700000000
H     1.205000000     2.019000000    -1.072000000
C    -0.009000000     1.259000000     0.500000000
H    -0.075000000     2.218000000     1.008000000
C    -0.667000000     0.115000000     0.988000000
H    -1.261000000     0.263000000     1.842000000
C    -0.524000000    -1.137000000     0.418000000
H    -0.975000000    -1.954000000     0.976000000
C     0.251000000    -1.247000000    -0.784000000
H     0.227000000    -2.221000000    -1.266000000
C     0.901000000    -0.163000000    -1.345000000
C     1.702000000    -0.358000000    -2.596000000
O     2.265000000     0.566000000    -3.079000000
O     1.904000000    -1.458000000    -3.037000000
O    -2.771000000    -5.192000000     0.387000000
H    -2.754000000    -4.663000000    -0.411000000
H    -2.987000000    -4.570000000     1.082000000
O     0.587000000    -1.371000000    -7.681000000
H     0.923000000    -0.673000000    -7.119000000
H     0.499000000    -0.963000000    -8.543000000
O     3.385000000     3.265000000    -3.623000000
H     2.953000000     2.417000000    -3.727000000
H     3.930000000     3.161000000    -2.843000000
O     3.635000000    -5.414000000    -3.949000000
H     3.166000000    -5.990000000    -4.554000000
H     4.457000000    -5.871000000    -3.772000000
O     1.092000000     4.614000000    -3.858000000
H     1.968000000     4.233000000    -3.810000000
H     0.727000000     4.273000000    -4.675000000
O     0.803000000    -5.313000000     4.060000000
H    -0.046000000    -4.939000000     3.826000000
H     0.648000000    -5.756000000     4.894000000
O    -0.182000000    -3.192000000    -3.670000000
H     0.600000000    -2.666000000    -3.504000000
H    -0.626000000    -2.741000000    -4.389000000
O    -0.745000000    -6.872000000     0.042000000
H    -1.477000000    -6.294000000     0.257000000
H    -0.217000000    -6.370000000    -0.580000000
O     0.848000000     4.789000000    -1.164000000
H    -0.049000000     5.120000000    -1.115000000
H     1.062000000     4.812000000    -2.097000000
O    -0.528000000     1.103000000    -5.145000000
H    -0.900000000     0.477000000    -4.524000000
H     0.323000000     0.732000000    -5.379000000
O    -1.870000000    -0.830000000    -3.574000000
H    -1.689000000    -0.668000000    -2.648000000
H    -2.823000000    -0.778000000    -3.644000000
O     2.616000000    -1.642000000     1.295000000
H     1.949000000    -0.962000000     1.194000000
H     2.181000000    -2.448000000     1.017000000
O     0.798000000    -5.766000000    -2.178000000
H     0.649000000    -5.804000000    -3.123000000
H     1.183000000    -4.902000000    -2.030000000
O    -3.113000000    -2.155000000    -1.053000000
H    -2.223000000    -1.871000000    -0.846000000
H    -2.996000000    -2.932000000    -1.600000000
O     5.315000000    -2.008000000     0.798000000
H     5.384000000    -1.455000000     1.576000000
H     4.376000000    -2.153000000     0.690000000
O     1.096000000     1.466000000     4.217000000
H     1.710000000     1.844000000     4.847000000
H     0.911000000     2.180000000     3.607000000
O    -2.029000000     3.145000000    -1.021000000
H    -2.708000000     2.477000000    -1.112000000
H    -1.463000000     2.819000000    -0.322000000
O    -0.073000000     6.919000000     0.631000000
H     0.742000000     7.307000000     0.310000000
H     0.126000000     6.653000000     1.529000000
O    -1.439000000    -3.773000000     3.418000000
H    -2.167000000    -3.191000000     3.198000000
H    -0.702000000    -3.184000000     3.578000000
O    -4.265000000     0.038000000     1.099000000
H    -5.006000000     0.523000000     1.462000000
H    -4.134000000     0.417000000     0.230000000
O    -3.577000000    -2.875000000     5.578000000
H    -4.313000000    -2.318000000     5.326000000
H    -3.870000000    -3.311000000     6.378000000
O     3.806000000     1.843000000     1.514000000
H     3.763000000     1.642000000     0.579000000
H     3.277000000     2.635000000     1.613000000
O    -2.146000000    -4.454000000    -2.229000000
H    -2.480000000    -5.089000000    -2.863000000
H    -1.508000000    -3.938000000    -2.721000000
O     2.542000000     5.042000000     0.774000000
H     3.266000000     5.405000000     0.264000000
H     1.896000000     4.779000000     0.119000000
O     5.388000000     0.501000000    -6.101000000
H     5.113000000    -0.133000000    -6.763000000
H     5.308000000     0.032000000    -5.271000000
O     1.279000000     4.074000000     3.080000000
H     1.825000000     4.448000000     2.389000000
H     0.808000000     4.823000000     3.446000000
O     2.788000000    -3.590000000    -2.079000000
H     3.122000000    -3.972000000    -2.891000000
H     2.519000000    -2.704000000    -2.324000000
O     4.468000000    -1.159000000    -4.133000000
H     3.536000000    -0.957000000    -4.043000000
H     4.851000000    -0.900000000    -3.295000000
O     2.329000000    -4.637000000     0.586000000
H     2.444000000    -4.344000000    -0.318000000
H     3.167000000    -5.037000000     0.817000000
O    -3.992000000     1.103000000    -1.582000000
H    -4.259000000     0.524000000    -2.296000000
H    -4.795000000     1.559000000    -1.330000000
O     4.917000000    -3.508000000    -6.043000000
H     4.609000000    -4.154000000    -5.408000000
H     4.124000000    -3.216000000    -6.492000000
O    -4.573000000     2.500000000     6.116000000
H    -4.452000000     2.787000000     7.021000000
H    -3.685000000     2.430000000     5.765000000
O    -1.082000000     0.840000000     5.529000000
H    -1.536000000     1.674000000     5.411000000
H    -0.311000000     0.906000000     4.966000000
O    -2.679000000     5.562000000     0.256000000
H    -2.555000000     4.818000000    -0.333000000
H    -1.914000000     6.117000000     0.105000000
O    -1.903000000     3.457000000     4.745000000
H    -1.445000000     4.118000000     5.264000000
H    -2.631000000     3.931000000     4.343000000
O    -3.166000000     2.386000000     2.011000000
H    -3.278000000     1.444000000     1.877000000
H    -2.235000000     2.491000000     2.205000000
O    -1.713000000     5.282000000    -3.005000000
H    -0.895000000     4.939000000    -3.366000000
H    -2.061000000     4.564000000    -2.477000000
O     3.876000000     1.651000000    -1.387000000
H     4.648000000     1.085000000    -1.398000000
H     3.220000000     1.171000000    -1.892000000
O     2.317000000    -2.887000000    -6.152000000
H     2.709000000    -2.272000000    -5.531000000
H     1.431000000    -2.553000000    -6.292000000
O     5.962000000    -0.116000000    -1.647000000
H     6.758000000     0.166000000    -2.097000000
H     6.275000000    -0.657000000    -0.923000000
O     5.520000000    -3.863000000    -1.470000000
H     5.752000000    -3.164000000    -0.859000000
H     4.574000000    -3.773000000    -1.589000000
O    -0.773000000    -2.388000000     6.031000000
H    -1.662000000    -2.611000000     5.753000000
H    -0.423000000    -1.861000000     5.312000000
O    -5.389000000     3.956000000     1.014000000
H    -5.400000000     4.765000000     1.525000000
H    -4.602000000     3.497000000     1.309000000
O     0.602000000    -1.322000000     3.899000000
H     0.512000000    -0.411000000     3.621000000
H     1.478000000    -1.576000000     3.607000000
O    -3.370000000    -2.154000000     2.551000000
H    -4.220000000    -2.589000000     2.487000000
H    -3.357000000    -1.543000000     1.814000000
O    -0.489000000     3.709000000    -5.860000000
H    -0.623000000     2.826000000    -5.517000000
H    -0.733000000     3.647000000    -6.784000000
O     2.068000000     0.238000000    -5.766000000
H     2.224000000     0.356000000    -4.829000000
H     2.854000000     0.590000000    -6.185000000
O    -2.977000000    -0.316000000     6.958000000
H    -2.479000000     0.084000000     6.245000000
H    -2.855000000    -1.257000000     6.836000000
