158
-3038.41478
C    -0.325000000    -0.622000000    -1.288000000
H    -0.593000000    -1.124000000    -2.213000000
C    -0.976000000    -0.880000000    -0.081000000
H    -1.811000000    -1.575000000    -0.084000000
C    -0.529000000    -0.305000000     1.052000000
H    -1.143000000    -0.397000000     1.978000000
C     0.496000000     0.632000000     0.966000000
H     0.795000000     1.160000000     1.868000000
C     1.071000000     1.018000000    -0.228000000
H     1.928000000     1.682000000    -0.145000000
C     0.717000000     0.363000000    -1.380000000
C     1.396000000     0.525000000    -2.637000000
O     2.175000000     1.449000000    -2.705000000
O     1.112000000    -0.183000000    -3.591000000
O     5.480000000     2.542000000    -1.329000000
H     4.872000000     3.263000000    -1.494000000
H     5.875000000     2.751000000    -0.483000000
O     4.730000000    -3.744000000    -4.251000000
H     5.191000000    -3.209000000    -3.604000000
H     3.884000000    -3.309000000    -4.363000000
O    -1.269000000     0.871000000    -4.363000000
H    -0.444000000     0.466000000    -4.096000000
H    -1.288000000     1.706000000    -3.895000000
O     1.198000000    -2.242000000     2.672000000
H     2.155000000    -2.235000000     2.665000000
H     0.950000000    -1.917000000     1.807000000
O    -0.117000000    -5.963000000     1.362000000
H    -1.027000000    -5.670000000     1.315000000
H     0.021000000    -6.170000000     2.286000000
O     2.327000000     1.270000000     4.352000000
H     2.278000000     0.439000000     4.824000000
H     2.955000000     1.109000000     3.648000000
O     0.535000000     5.434000000    -5.511000000
H     1.360000000     5.265000000    -5.057000000
H     0.249000000     6.285000000    -5.181000000
O    -5.597000000     2.228000000    -1.122000000
H    -4.746000000     1.867000000    -0.875000000
H    -5.472000000     2.548000000    -2.016000000
O     4.104000000    -0.703000000    -6.387000000
H     3.454000000    -0.044000000    -6.144000000
H     4.178000000    -1.264000000    -5.615000000
O    -0.616000000     2.345000000     4.415000000
H     0.238000000     1.923000000     4.507000000
H    -0.769000000     2.762000000     5.263000000
O     0.746000000    -1.350000000    -6.557000000
H     0.995000000    -2.047000000    -5.949000000
H     1.487000000    -0.745000000    -6.544000000
O     0.467000000    -1.638000000     5.133000000
H     0.927000000    -2.367000000     5.549000000
H     0.767000000    -1.654000000     4.224000000
O     5.120000000     2.568000000    -5.478000000
H     5.912000000     2.337000000    -5.964000000
H     4.962000000     1.817000000    -4.906000000
O    -1.214000000     3.026000000    -2.700000000
H    -1.626000000     3.180000000    -1.849000000
H    -0.401000000     3.530000000    -2.667000000
O     1.502000000    -4.008000000     0.162000000
H     1.212000000    -4.303000000    -0.701000000
H     0.761000000    -4.192000000     0.740000000
O    -3.613000000     4.159000000     2.022000000
H    -4.379000000     4.031000000     1.461000000
H    -3.605000000     3.392000000     2.595000000
O     4.636000000     0.798000000    -3.390000000
H     5.142000000     1.060000000    -2.621000000
H     3.757000000     1.139000000    -3.225000000
O    -4.283000000    -0.426000000     2.274000000
H    -4.655000000    -1.159000000     2.764000000
H    -4.160000000     0.262000000     2.928000000
O    -2.432000000    -4.162000000     0.939000000
H    -2.760000000    -3.264000000     0.992000000
H    -3.166000000    -4.703000000     1.228000000
O    -3.764000000    -3.370000000     3.989000000
H    -3.005000000    -3.029000000     4.461000000
H    -4.497000000    -3.248000000     4.593000000
O    -2.462000000    -2.042000000     5.896000000
H    -2.407000000    -2.123000000     6.848000000
H    -1.559000000    -1.897000000     5.615000000
O    -3.901000000     1.457000000     6.313000000
H    -4.620000000     1.383000000     6.941000000
H    -3.174000000     0.992000000     6.726000000
O     1.284000000     4.216000000    -2.312000000
H     1.375000000     4.503000000    -1.403000000
H     1.446000000     3.273000000    -2.283000000
O     2.305000000    -2.712000000    -4.235000000
H     1.730000000    -3.413000000    -3.927000000
H     1.966000000    -1.922000000    -3.813000000
O     3.954000000     5.923000000    -2.860000000
H     3.123000000     5.484000000    -2.681000000
H     4.250000000     5.546000000    -3.689000000
O     1.042000000     0.298000000     7.336000000
H     0.971000000    -0.151000000     6.494000000
H     0.321000000    -0.055000000     7.857000000
O    -3.409000000     1.089000000     0.088000000
H    -2.588000000     1.580000000     0.121000000
H    -3.378000000     0.518000000     0.856000000
O    -1.109000000     3.163000000     0.280000000
H    -1.740000000     3.710000000     0.748000000
H    -0.368000000     3.085000000     0.881000000
O     0.377000000    -4.930000000     3.846000000
H    -0.510000000    -5.197000000     4.088000000
H     0.251000000    -4.177000000     3.268000000
O    -3.081000000     1.701000000     3.640000000
H    -2.157000000     1.858000000     3.834000000
H    -3.522000000     1.792000000     4.484000000
O     4.299000000     0.580000000     2.599000000
H     4.369000000     0.297000000     1.687000000
H     4.951000000     0.054000000     3.062000000
O     4.303000000     0.282000000    -0.554000000
H     3.507000000     0.348000000    -1.082000000
H     4.725000000     1.137000000    -0.649000000
O    -4.328000000    -0.365000000    -2.710000000
H    -3.915000000    -0.157000000    -1.872000000
H    -4.391000000     0.477000000    -3.162000000
O    -0.821000000    -0.031000000    -8.246000000
H    -0.576000000    -0.756000000    -7.670000000
H    -0.022000000     0.489000000    -8.330000000
O    -2.886000000     0.902000000    -6.699000000
H    -2.429000000     0.868000000    -5.858000000
H    -2.198000000     0.763000000    -7.351000000
O     0.499000000     4.295000000     2.736000000
H    -0.164000000     4.925000000     2.456000000
H     0.053000000     3.749000000     3.383000000
O     3.001000000     3.966000000    -4.654000000
H     3.747000000     3.412000000    -4.885000000
H     2.576000000     3.507000000    -3.930000000
O     2.771000000     4.122000000     4.497000000
H     2.474000000     3.231000000     4.685000000
H     2.338000000     4.350000000     3.674000000
O    -4.145000000    -3.947000000    -3.543000000
H    -3.637000000    -3.267000000    -3.986000000
H    -3.514000000    -4.381000000    -2.969000000
O    -3.046000000    -1.720000000    -4.899000000
H    -3.179000000    -1.361000000    -4.022000000
H    -2.164000000    -1.436000000    -5.142000000
O    -4.888000000    -0.911000000     5.234000000
H    -5.328000000    -0.649000000     6.043000000
H    -4.057000000    -1.286000000     5.524000000
O    -2.128000000    -5.717000000     3.938000000
H    -2.432000000    -6.448000000     3.401000000
H    -2.829000000    -5.068000000     3.879000000
O    -1.611000000    -4.862000000    -1.607000000
H    -1.774000000    -4.864000000    -0.664000000
H    -1.813000000    -5.755000000    -1.887000000
O     2.176000000     1.154000000    -5.751000000
H     1.935000000     2.068000000    -5.902000000
H     1.696000000     0.908000000    -4.960000000
O     0.239000000    -4.333000000    -3.453000000
H    -0.230000000    -4.656000000    -2.684000000
H     0.784000000    -5.071000000    -3.728000000
O     2.360000000     4.320000000     0.230000000
H     1.825000000     3.934000000     0.923000000
H     2.595000000     5.186000000     0.564000000
O     5.455000000    -2.359000000    -1.893000000
H     5.014000000    -1.511000000    -1.948000000
H     5.315000000    -2.644000000    -0.990000000
O    -6.348000000    -0.018000000     0.254000000
H    -5.647000000    -0.302000000     0.841000000
H    -6.080000000     0.856000000    -0.033000000
