158
-3034.56003
C     0.712000000     0.521000000    -1.142000000
H     1.159000000     1.160000000    -1.900000000
C     0.679000000     1.159000000     0.140000000
H     1.232000000     2.072000000     0.345000000
C    -0.120000000     0.504000000     1.120000000
H    -0.131000000     0.909000000     2.100000000
C    -0.701000000    -0.737000000     0.895000000
H    -1.225000000    -1.239000000     1.705000000
C    -0.601000000    -1.349000000    -0.369000000
H    -1.021000000    -2.341000000    -0.517000000
C     0.140000000    -0.701000000    -1.409000000
C     0.323000000    -1.279000000    -2.792000000
O     1.196000000    -0.841000000    -3.472000000
O    -0.314000000    -2.265000000    -3.115000000
O    -1.872000000    -5.329000000    -6.984000000
H    -1.311000000    -5.217000000    -7.752000000
H    -1.823000000    -4.489000000    -6.528000000
O    -2.122000000     3.376000000     6.103000000
H    -2.215000000     4.194000000     5.615000000
H    -1.804000000     3.646000000     6.965000000
O     0.828000000    -4.749000000     1.991000000
H     0.339000000    -4.697000000     1.170000000
H     1.483000000    -5.429000000     1.836000000
O     4.169000000    -5.034000000    -4.531000000
H     3.416000000    -5.512000000    -4.184000000
H     3.841000000    -4.147000000    -4.681000000
O     2.319000000    -2.846000000    -4.815000000
H     1.681000000    -2.430000000    -4.235000000
H     2.135000000    -2.476000000    -5.678000000
O     0.993000000     3.170000000    -4.819000000
H     1.709000000     3.116000000    -4.186000000
H     0.757000000     2.259000000    -4.993000000
O     2.036000000    -5.695000000    -0.807000000
H     1.305000000    -5.942000000    -0.242000000
H     1.698000000    -5.800000000    -1.696000000
O     4.102000000     1.658000000    -0.449000000
H     4.035000000     1.551000000    -1.398000000
H     3.849000000     0.806000000    -0.094000000
O     5.283000000     2.267000000    -3.553000000
H     4.597000000     1.661000000    -3.834000000
H     5.088000000     3.081000000    -4.017000000
O    -3.794000000    -4.772000000     1.605000000
H    -3.165000000    -5.250000000     1.064000000
H    -3.584000000    -3.850000000     1.458000000
O     3.470000000     4.255000000    -0.037000000
H     3.648000000     3.334000000    -0.226000000
H     3.009000000     4.242000000     0.802000000
O    -0.921000000    -4.982000000    -0.180000000
H    -0.489000000    -4.906000000    -1.030000000
H    -1.386000000    -5.817000000    -0.222000000
O     2.203000000     0.942000000     3.655000000
H     1.579000000     1.213000000     4.328000000
H     2.061000000     1.556000000     2.935000000
O    -1.023000000    -5.678000000     4.373000000
H    -0.849000000    -5.166000000     3.584000000
H    -0.475000000    -6.457000000     4.279000000
O     3.522000000    -0.739000000     0.873000000
H     3.331000000    -1.578000000     0.454000000
H     3.508000000    -0.931000000     1.811000000
O    -0.375000000     5.677000000     1.887000000
H     0.041000000     6.025000000     1.099000000
H    -0.590000000     4.771000000     1.664000000
O     1.454000000     5.700000000     4.972000000
H     2.408000000     5.623000000     4.937000000
H     1.178000000     4.990000000     5.551000000
O     2.914000000     0.945000000    -3.893000000
H     3.115000000     0.770000000    -4.812000000
H     2.281000000     0.269000000    -3.654000000
O     1.331000000     0.759000000    -7.346000000
H     0.757000000     1.015000000    -8.067000000
H     0.735000000     0.576000000    -6.619000000
O    -5.992000000    -3.744000000    -1.341000000
H    -6.241000000    -2.957000000    -1.825000000
H    -5.427000000    -3.424000000    -0.637000000
O    -4.378000000     0.338000000     1.438000000
H    -5.058000000    -0.003000000     2.019000000
H    -3.709000000     0.683000000     2.029000000
O     4.523000000     1.127000000     5.101000000
H     4.620000000     0.334000000     5.627000000
H     3.785000000     0.941000000     4.520000000
O    -2.144000000     1.539000000    -1.213000000
H    -1.890000000     2.455000000    -1.099000000
H    -1.588000000     1.059000000    -0.599000000
O     3.330000000    -2.035000000    -2.281000000
H     2.532000000    -1.607000000    -2.589000000
H     3.913000000    -2.029000000    -3.040000000
O    -4.799000000     0.900000000    -1.260000000
H    -4.844000000     0.507000000    -0.389000000
H    -3.933000000     1.306000000    -1.296000000
O     0.767000000     2.151000000     5.552000000
H    -0.046000000     1.659000000     5.440000000
H     1.027000000     1.981000000     6.457000000
O    -2.417000000     1.704000000     3.689000000
H    -2.500000000     2.305000000     4.430000000
H    -1.640000000     1.182000000     3.890000000
O     0.958000000    -2.129000000     3.523000000
H     0.630000000    -3.026000000     3.470000000
H     0.908000000    -1.801000000     2.625000000
O     2.354000000     4.368000000     2.483000000
H     1.637000000     4.891000000     2.842000000
H     2.883000000     4.133000000     3.246000000
O    -5.487000000     3.146000000     1.430000000
H    -5.236000000     2.283000000     1.102000000
H    -4.656000000     3.578000000     1.628000000
O     0.329000000    -4.940000000    -2.790000000
H     0.279000000    -5.419000000    -3.617000000
H     0.130000000    -4.034000000    -3.025000000
O     3.926000000    -1.456000000     3.540000000
H     4.810000000    -1.089000000     3.528000000
H     3.356000000    -0.704000000     3.700000000
O    -2.852000000     0.671000000     7.048000000
H    -2.603000000     1.465000000     6.576000000
H    -3.100000000     0.979000000     7.920000000
O     1.106000000    -1.982000000    -6.946000000
H     0.674000000    -2.229000000    -7.765000000
H     1.220000000    -1.034000000    -7.012000000
O     5.137000000    -1.017000000    -5.649000000
H     4.875000000    -1.436000000    -6.468000000
H     4.991000000    -0.083000000    -5.800000000
O     0.978000000     6.653000000    -0.196000000
H     1.455000000     7.453000000    -0.417000000
H     0.479000000     6.445000000    -0.986000000
O    -2.618000000     0.460000000    -3.694000000
H    -2.860000000    -0.344000000    -3.234000000
H    -2.376000000     1.071000000    -2.997000000
O     1.380000000    -1.479000000     6.326000000
H     2.336000000    -1.461000000     6.360000000
H     1.177000000    -1.800000000     5.448000000
O    -2.389000000     4.296000000    -0.491000000
H    -2.516000000     4.290000000     0.458000000
H    -3.109000000     4.832000000    -0.825000000
O     4.011000000     6.404000000    -1.706000000
H     3.683000000     5.777000000    -1.061000000
H     3.466000000     7.182000000    -1.583000000
O     6.547000000     1.683000000     0.979000000
H     5.678000000     1.773000000     0.589000000
H     7.145000000     2.020000000     0.312000000
O    -4.363000000    -3.067000000    -4.368000000
H    -4.971000000    -2.390000000    -4.663000000
H    -4.900000000    -3.855000000    -4.291000000
O    -1.369000000    -2.854000000    -5.970000000
H    -1.302000000    -2.894000000    -5.016000000
H    -0.578000000    -2.391000000    -6.247000000
O    -3.987000000    -2.075000000     0.024000000
H    -4.093000000    -1.254000000     0.504000000
H    -3.419000000    -1.849000000    -0.713000000
O    -0.564000000    -0.071000000     4.626000000
H     0.088000000    -0.618000000     4.187000000
H    -0.976000000    -0.655000000     5.263000000
O    -2.802000000    -2.015000000    -2.468000000
H    -1.923000000    -2.312000000    -2.701000000
H    -3.355000000    -2.315000000    -3.190000000
O    -0.170000000     0.698000000    -5.130000000
H    -1.046000000     0.693000000    -4.744000000
H     0.327000000     0.073000000    -4.602000000
O    -2.764000000     4.085000000     2.206000000
H    -2.651000000     3.247000000     2.655000000
H    -2.930000000     4.713000000     2.909000000
