158
-3015.97069
C     1.268000000     0.332000000    -0.536000000
H     2.288000000     0.600000000    -0.800000000
C     0.875000000     0.521000000     0.781000000
H     1.491000000     1.041000000     1.509000000
C    -0.351000000     0.093000000     1.188000000
H    -0.713000000     0.178000000     2.188000000
C    -1.190000000    -0.544000000     0.253000000
H    -2.191000000    -0.850000000     0.546000000
C    -0.825000000    -0.666000000    -1.084000000
H    -1.520000000    -1.087000000    -1.807000000
C     0.475000000    -0.270000000    -1.492000000
C     1.022000000    -0.391000000    -2.850000000
O     2.042000000     0.228000000    -3.178000000
O     0.440000000    -1.001000000    -3.747000000
O     2.365000000    -2.457000000    -4.846000000
H     1.702000000    -2.993000000    -5.281000000
H     1.864000000    -1.794000000    -4.371000000
O     3.943000000     3.764000000     2.052000000
H     3.420000000     3.957000000     2.829000000
H     4.839000000     3.685000000     2.380000000
O    -1.294000000    -3.633000000     2.591000000
H    -0.717000000    -3.297000000     1.904000000
H    -1.525000000    -2.861000000     3.108000000
O     5.320000000    -4.049000000    -1.761000000
H     5.463000000    -4.525000000    -2.579000000
H     4.751000000    -3.319000000    -2.004000000
O    -1.234000000     2.309000000    -1.813000000
H    -1.777000000     3.060000000    -1.573000000
H    -1.079000000     1.852000000    -0.986000000
O     3.938000000    -1.646000000    -2.809000000
H     3.737000000    -2.013000000    -3.669000000
H     3.343000000    -0.901000000    -2.722000000
O    -4.520000000     3.156000000     4.264000000
H    -4.782000000     3.540000000     3.427000000
H    -3.742000000     2.639000000     4.058000000
O    -3.603000000    -4.869000000     3.425000000
H    -4.276000000    -4.707000000     2.764000000
H    -2.855000000    -4.345000000     3.139000000
O     4.963000000    -2.463000000    -5.901000000
H     5.008000000    -2.596000000    -6.847000000
H     4.027000000    -2.395000000    -5.713000000
O     2.629000000     3.052000000    -2.927000000
H     2.741000000     2.102000000    -2.928000000
H     2.666000000     3.297000000    -2.002000000
O     0.796000000    -2.774000000     0.797000000
H     0.680000000    -1.870000000     0.505000000
H     0.952000000    -3.268000000    -0.008000000
O    -1.441000000     3.170000000     1.376000000
H    -0.564000000     3.007000000     1.028000000
H    -1.531000000     4.123000000     1.361000000
O    -3.853000000     2.068000000     0.554000000
H    -3.072000000     2.337000000     1.037000000
H    -4.363000000     2.872000000     0.456000000
O     6.011000000     1.478000000    -5.168000000
H     5.090000000     1.295000000    -5.354000000
H     6.432000000     1.488000000    -6.028000000
O     5.191000000     0.284000000     1.542000000
H     5.544000000     0.683000000     2.337000000
H     4.543000000    -0.345000000     1.857000000
O    -1.535000000     4.800000000     3.882000000
H    -2.301000000     5.343000000     3.698000000
H    -0.821000000     5.426000000     4.006000000
O     4.096000000     3.238000000    -0.734000000
H     4.338000000     3.448000000     0.168000000
H     4.707000000     2.547000000    -0.992000000
O     3.721000000     4.458000000    -5.016000000
H     4.616000000     4.556000000    -4.690000000
H     3.218000000     4.171000000    -4.254000000
O     1.486000000    -0.380000000     4.944000000
H     1.053000000     0.402000000     4.602000000
H     1.006000000    -0.588000000     5.746000000
O     0.395000000     0.644000000    -5.818000000
H     0.206000000     1.372000000    -5.226000000
H     0.628000000    -0.082000000    -5.240000000
O     2.838000000     3.908000000     4.431000000
H     2.940000000     4.731000000     4.909000000
H     2.111000000     3.465000000     4.869000000
O     2.032000000     1.533000000    -8.227000000
H     2.178000000     1.017000000    -9.020000000
H     1.906000000     0.883000000    -7.537000000
O     6.135000000     1.343000000    -0.912000000
H     5.934000000     0.969000000    -0.054000000
H     6.481000000     0.608000000    -1.419000000
O     2.523000000    -2.999000000     4.525000000
H     2.254000000    -2.182000000     4.945000000
H     2.966000000    -3.490000000     5.218000000
O     0.305000000     2.561000000     4.758000000
H    -0.267000000     2.984000000     4.117000000
H    -0.182000000     2.609000000     5.581000000
O     1.111000000    -2.111000000    -7.734000000
H     1.277000000    -2.333000000    -8.650000000
H     1.824000000    -2.531000000    -7.253000000
O    -2.324000000     1.581000000     3.558000000
H    -2.033000000     2.336000000     3.046000000
H    -2.029000000     0.822000000     3.054000000
O     0.451000000    -4.294000000    -1.439000000
H    -0.338000000    -4.303000000    -1.981000000
H     1.092000000    -4.796000000    -1.942000000
O    -1.820000000     2.600000000     6.707000000
H    -2.289000000     3.031000000     7.421000000
H    -2.455000000     2.561000000     5.992000000
O    -2.284000000    -1.639000000     4.206000000
H    -3.161000000    -1.270000000     4.317000000
H    -1.783000000    -1.287000000     4.942000000
O    -5.011000000    -2.997000000    -3.933000000
H    -4.234000000    -3.546000000    -3.829000000
H    -5.547000000    -3.460000000    -4.577000000
O    -4.486000000    -2.429000000    -0.604000000
H    -5.359000000    -2.429000000    -0.996000000
H    -4.149000000    -1.549000000    -0.768000000
O     3.462000000     0.178000000    -5.407000000
H     2.886000000     0.427000000    -4.685000000
H     3.320000000    -0.762000000    -5.514000000
O    -3.262000000     2.222000000    -3.879000000
H    -2.605000000     2.235000000    -3.183000000
H    -3.375000000     1.293000000    -4.083000000
O    -1.298000000     0.211000000    -7.713000000
H    -1.289000000    -0.737000000    -7.582000000
H    -0.624000000     0.541000000    -7.119000000
O     0.234000000     3.073000000    -4.298000000
H    -0.344000000     2.872000000    -3.562000000
H     1.092000000     3.213000000    -3.897000000
O    -3.302000000    -3.143000000    -6.592000000
H    -3.063000000    -3.021000000    -5.673000000
H    -4.224000000    -2.889000000    -6.636000000
O    -6.188000000     0.565000000     1.313000000
H    -6.190000000     1.491000000     1.558000000
H    -5.413000000     0.465000000     0.761000000
O     3.928000000     0.312000000     4.322000000
H     4.074000000     1.218000000     4.592000000
H     3.076000000     0.086000000     4.694000000
O    -5.606000000    -4.192000000     1.485000000
H    -6.313000000    -3.669000000     1.862000000
H    -5.143000000    -3.587000000     0.905000000
O     0.140000000    -2.745000000     6.465000000
H     0.050000000    -2.567000000     5.529000000
H    -0.674000000    -2.422000000     6.850000000
O     6.088000000     3.215000000    -2.723000000
H     6.192000000     2.673000000    -1.941000000
H     6.105000000     2.592000000    -3.450000000
O     6.509000000    -1.078000000    -2.260000000
H     6.907000000    -0.978000000    -3.124000000
H     5.624000000    -1.397000000    -2.439000000
O    -4.671000000     0.227000000    -1.345000000
H    -4.296000000     0.964000000    -0.863000000
H    -5.410000000     0.605000000    -1.823000000
O    -2.202000000    -4.040000000    -2.236000000
H    -2.739000000    -3.523000000    -1.636000000
H    -2.771000000    -4.762000000    -2.505000000
O    -1.632000000    -2.456000000    -4.600000000
H    -1.790000000    -2.698000000    -3.687000000
H    -0.895000000    -1.846000000    -4.562000000
O     1.545000000     4.519000000     0.864000000
H     2.279000000     4.227000000     0.323000000
H     1.956000000     4.956000000     1.610000000
O    -1.527000000    -0.049000000     6.364000000
H    -1.551000000     0.889000000     6.556000000
H    -2.132000000    -0.438000000     6.995000000
