158
-3060.13320
C     0.124000000    -1.194000000     0.898000000
H     0.194000000    -1.960000000     1.666000000
C    -1.082000000    -0.741000000     0.315000000
H    -2.025000000    -1.184000000     0.624000000
C    -1.042000000     0.409000000    -0.497000000
H    -1.944000000     0.833000000    -0.933000000
C     0.109000000     1.036000000    -0.815000000
H     0.029000000     1.941000000    -1.412000000
C     1.342000000     0.474000000    -0.361000000
H     2.245000000     1.061000000    -0.512000000
C     1.334000000    -0.579000000     0.580000000
C     2.666000000    -1.156000000     1.080000000
O     3.727000000    -0.553000000     0.866000000
O     2.613000000    -2.376000000     1.363000000
O     5.100000000     1.934000000    -0.089000000
H     4.903000000     2.098000000     0.834000000
H     4.942000000     0.997000000    -0.204000000
O    -5.284000000     4.080000000    -3.548000000
H    -4.547000000     3.523000000    -3.799000000
H    -5.167000000     4.879000000    -4.062000000
O    -2.065000000    -5.914000000     0.614000000
H    -2.320000000    -5.078000000     0.224000000
H    -1.506000000    -6.325000000    -0.045000000
O     5.197000000    -0.821000000    -1.144000000
H     5.390000000    -1.759000000    -1.121000000
H     4.441000000    -0.719000000    -0.566000000
O    -1.958000000     0.701000000    -6.696000000
H    -2.146000000     0.522000000    -5.775000000
H    -1.257000000     0.089000000    -6.921000000
O     4.480000000     0.114000000     4.103000000
H     5.072000000     0.638000000     4.644000000
H     5.057000000    -0.342000000     3.490000000
O     1.461000000     0.526000000    -5.327000000
H     1.216000000    -0.133000000    -5.977000000
H     2.311000000     0.234000000    -4.998000000
O    -0.393000000     5.337000000     2.057000000
H     0.560000000     5.391000000     2.123000000
H    -0.578000000     4.399000000     2.027000000
O     4.895000000    -4.286000000     5.385000000
H     5.650000000    -3.712000000     5.250000000
H     4.150000000    -3.782000000     5.058000000
O    -3.441000000    -2.899000000    -0.573000000
H    -3.853000000    -2.124000000    -0.955000000
H    -3.848000000    -2.986000000     0.289000000
O     1.060000000    -1.762000000     6.740000000
H     1.915000000    -1.420000000     6.478000000
H     0.629000000    -1.986000000     5.916000000
O    -1.304000000     3.699000000    -3.031000000
H    -0.962000000     4.144000000    -2.257000000
H    -0.526000000     3.391000000    -3.495000000
O     0.259000000     0.372000000     4.953000000
H    -0.262000000    -0.372000000     4.653000000
H     0.099000000     0.413000000     5.896000000
O    -1.354000000    -0.556000000    -4.211000000
H    -0.501000000    -0.985000000    -4.274000000
H    -1.971000000    -1.270000000    -4.056000000
O    -2.552000000     0.624000000     2.936000000
H    -2.061000000    -0.195000000     3.002000000
H    -2.787000000     0.836000000     3.840000000
O     7.286000000     2.795000000     2.797000000
H     6.418000000     2.612000000     2.438000000
H     7.893000000     2.484000000     2.126000000
O     7.062000000     0.742000000    -2.970000000
H     6.303000000     0.465000000    -2.457000000
H     6.736000000     0.800000000    -3.868000000
O    -4.686000000    -0.706000000    -5.407000000
H    -4.477000000    -1.200000000    -6.199000000
H    -4.815000000    -1.375000000    -4.734000000
O     3.443000000    -1.516000000    -3.224000000
H     2.552000000    -1.671000000    -2.912000000
H     3.963000000    -1.423000000    -2.425000000
O    -1.613000000    -1.778000000     3.963000000
H    -1.022000000    -2.528000000     4.030000000
H    -2.403000000    -2.053000000     4.427000000
O    -4.789000000    -2.308000000     1.702000000
H    -5.027000000    -2.040000000     2.590000000
H    -4.595000000    -1.488000000     1.249000000
O    -6.061000000     3.012000000     0.973000000
H    -5.902000000     3.542000000     0.192000000
H    -6.838000000     2.495000000     0.759000000
O     7.126000000    -5.009000000     2.580000000
H     7.805000000    -4.968000000     1.907000000
H     6.483000000    -4.353000000     2.312000000
O     1.193000000     3.146000000    -4.810000000
H     2.110000000     3.249000000    -4.556000000
H     1.089000000     2.207000000    -4.959000000
O    -1.405000000    -3.285000000    -2.621000000
H    -1.921000000    -3.143000000    -1.828000000
H    -1.962000000    -3.832000000    -3.175000000
O    -0.921000000    -6.054000000     3.215000000
H    -1.154000000    -5.891000000     2.301000000
H    -1.670000000    -6.532000000     3.571000000
O     0.214000000    -3.707000000     4.048000000
H    -0.034000000    -4.627000000     3.960000000
H     0.935000000    -3.593000000     3.428000000
O     8.040000000     2.274000000     0.105000000
H     8.514000000     1.446000000     0.178000000
H     7.124000000     2.017000000    -0.006000000
O     1.798000000     6.865000000    -1.244000000
H     1.312000000     7.690000000    -1.269000000
H     1.121000000     6.189000000    -1.225000000
O    -0.304000000     5.101000000    -1.011000000
H    -0.151000000     4.857000000    -0.099000000
H    -1.060000000     5.689000000    -0.978000000
O     5.129000000    -3.380000000     1.735000000
H     4.230000000    -3.096000000     1.901000000
H     5.184000000    -3.458000000     0.783000000
O     4.312000000     4.150000000    -2.111000000
H     4.764000000     3.446000000    -1.647000000
H     4.559000000     4.946000000    -1.639000000
O     4.660000000    -6.094000000     0.869000000
H     4.437000000    -5.234000000     1.226000000
H     3.836000000    -6.425000000     0.512000000
O     6.326000000    -0.398000000     2.094000000
H     5.522000000    -0.722000000     1.690000000
H     6.889000000    -1.169000000     2.161000000
O     1.529000000    -4.833000000     1.829000000
H     1.849000000    -3.936000000     1.735000000
H     1.662000000    -5.227000000     0.967000000
O     4.266000000     2.984000000     2.338000000
H     3.541000000     2.461000000     2.680000000
H     4.614000000     3.441000000     3.103000000
O    -3.398000000     1.839000000    -3.433000000
H    -2.821000000     2.539000000    -3.129000000
H    -2.810000000     1.107000000    -3.619000000
O    -5.268000000    -2.499000000    -3.322000000
H    -6.203000000    -2.699000000    -3.347000000
H    -5.202000000    -1.730000000    -2.756000000
O     5.205000000    -3.671000000    -1.260000000
H     5.760000000    -4.177000000    -1.854000000
H     4.338000000    -4.066000000    -1.348000000
O     2.037000000    -7.335000000     3.311000000
H     1.891000000    -6.485000000     2.895000000
H     1.652000000    -7.968000000     2.705000000
O    -4.439000000     0.505000000     0.969000000
H    -3.760000000     0.588000000     1.639000000
H    -4.708000000     1.405000000     0.788000000
O    -4.704000000    -0.484000000    -1.642000000
H    -4.299000000     0.185000000    -2.194000000
H    -4.813000000    -0.058000000    -0.792000000
O    -2.361000000     6.713000000    -2.191000000
H    -2.531000000     5.971000000    -2.772000000
H    -3.216000000     6.925000000    -1.817000000
O     2.170000000     1.377000000     3.301000000
H     1.426000000     1.087000000     3.829000000
H     2.853000000     0.729000000     3.472000000
O    -0.575000000     2.762000000     2.277000000
H    -1.112000000     1.978000000     2.164000000
H     0.258000000     2.545000000     1.860000000
O     3.167000000    -2.266000000     3.871000000
H     3.492000000    -1.410000000     4.151000000
H     3.010000000    -2.167000000     2.932000000
O     0.822000000    -1.922000000    -2.349000000
H     0.416000000    -1.139000000    -1.977000000
H     0.097000000    -2.535000000    -2.468000000
O     2.425000000    -3.967000000    -0.938000000
H     2.526000000    -3.417000000    -0.160000000
H     1.644000000    -3.625000000    -1.372000000
