158
-3025.97765
C     0.714000000    -0.184000000    -1.267000000
H     1.314000000    -0.246000000    -2.171000000
C     0.473000000     1.065000000    -0.635000000
H     0.867000000     1.976000000    -1.079000000
C    -0.200000000     1.090000000     0.548000000
H    -0.402000000     2.058000000     1.090000000
C    -0.712000000    -0.082000000     1.091000000
H    -1.291000000    -0.054000000     2.010000000
C    -0.594000000    -1.284000000     0.368000000
H    -1.008000000    -2.194000000     0.795000000
C     0.275000000    -1.369000000    -0.777000000
C     0.581000000    -2.632000000    -1.435000000
O     1.543000000    -2.708000000    -2.231000000
O    -0.104000000    -3.651000000    -1.230000000
O     4.172000000     0.847000000    -3.900000000
H     4.319000000    -0.096000000    -3.827000000
H     4.385000000     1.191000000    -3.032000000
O    -0.243000000    -1.709000000     3.994000000
H     0.077000000    -2.597000000     4.153000000
H     0.437000000    -1.302000000     3.457000000
O    -4.425000000     5.129000000    -3.326000000
H    -3.618000000     4.928000000    -2.852000000
H    -4.138000000     5.321000000    -4.219000000
O    -2.348000000     3.849000000    -2.004000000
H    -1.704000000     4.281000000    -1.442000000
H    -2.904000000     3.360000000    -1.398000000
O     3.053000000    -5.785000000    -0.441000000
H     2.743000000    -5.643000000    -1.335000000
H     3.825000000    -5.224000000    -0.363000000
O     2.785000000     6.869000000    -0.185000000
H     1.958000000     6.389000000    -0.223000000
H     3.316000000     6.383000000     0.446000000
O     4.425000000    -2.597000000    -2.259000000
H     3.469000000    -2.658000000    -2.247000000
H     4.653000000    -2.242000000    -1.400000000
O    -3.470000000    -3.968000000     4.004000000
H    -3.038000000    -3.154000000     4.262000000
H    -3.003000000    -4.247000000     3.216000000
O     1.349000000     6.269000000    -2.758000000
H     1.124000000     5.851000000    -1.926000000
H     1.119000000     5.619000000    -3.422000000
O     0.341000000     5.315000000    -0.194000000
H    -0.527000000     5.701000000    -0.076000000
H     0.758000000     5.396000000     0.663000000
O     3.863000000     2.416000000    -1.515000000
H     3.967000000     3.367000000    -1.508000000
H     4.092000000     2.143000000    -0.627000000
O    -3.262000000    -3.789000000     1.077000000
H    -4.090000000    -4.267000000     1.051000000
H    -2.955000000    -3.791000000     0.170000000
O    -4.819000000    -1.866000000    -0.646000000
H    -4.219000000    -2.510000000    -1.022000000
H    -5.677000000    -2.289000000    -0.678000000
O     0.906000000     5.882000000     2.947000000
H     1.693000000     5.871000000     3.491000000
H     0.790000000     6.803000000     2.712000000
O     2.234000000    -1.772000000    -7.196000000
H     2.244000000    -2.096000000    -6.295000000
H     1.810000000    -2.470000000    -7.697000000
O    -1.495000000     1.292000000    -6.260000000
H    -1.070000000     0.603000000    -6.770000000
H    -1.213000000     1.131000000    -5.359000000
O    -0.054000000    -1.057000000     6.823000000
H    -0.010000000    -0.958000000     5.872000000
H     0.021000000    -2.000000000     6.970000000
O    -2.828000000     3.562000000     4.473000000
H    -3.369000000     3.121000000     3.818000000
H    -2.365000000     4.241000000     3.984000000
O     2.184000000     2.426000000     4.152000000
H     1.401000000     2.277000000     4.682000000
H     2.253000000     3.379000000     4.090000000
O     1.862000000     2.309000000    -3.560000000
H     2.360000000     1.816000000    -4.212000000
H     2.447000000     2.362000000    -2.803000000
O     2.372000000    -0.297000000     2.551000000
H     2.452000000     0.276000000     3.313000000
H     1.673000000     0.094000000     2.028000000
O     4.666000000    -4.309000000     1.406000000
H     4.900000000    -3.537000000     0.891000000
H     4.072000000    -3.976000000     2.079000000
O    -0.470000000    -5.288000000    -3.619000000
H     0.424000000    -5.489000000    -3.341000000
H    -0.716000000    -4.522000000    -3.100000000
O     3.078000000     5.087000000     4.665000000
H     3.930000000     4.738000000     4.927000000
H     2.911000000     5.800000000     5.281000000
O    -2.215000000     6.571000000     0.167000000
H    -3.102000000     6.251000000     0.001000000
H    -2.035000000     7.165000000    -0.562000000
O    -0.292000000    -7.889000000     1.986000000
H    -0.225000000    -7.066000000     1.502000000
H     0.550000000    -8.320000000     1.843000000
O     3.997000000     5.157000000     1.838000000
H     3.952000000     5.263000000     2.788000000
H     4.355000000     4.278000000     1.712000000
O    -2.772000000    -0.996000000     4.640000000
H    -3.242000000    -0.864000000     3.817000000
H    -1.852000000    -1.061000000     4.383000000
O     0.156000000    -5.760000000     0.499000000
H     1.094000000    -5.646000000     0.653000000
H    -0.079000000    -5.044000000    -0.091000000
O    -0.173000000     2.065000000     5.705000000
H    -0.083000000     1.564000000     6.516000000
H    -1.117000000     2.115000000     5.557000000
O     5.661000000    -1.660000000    -0.048000000
H     6.499000000    -1.334000000    -0.376000000
H     5.417000000    -1.042000000     0.641000000
O    -1.874000000    -7.381000000    -1.183000000
H    -1.277000000    -8.107000000    -0.999000000
H    -1.365000000    -6.596000000    -0.980000000
O     0.802000000     4.551000000    -4.618000000
H     0.981000000     3.751000000    -4.123000000
H     1.141000000     4.371000000    -5.495000000
O    -4.620000000     2.075000000     2.991000000
H    -4.313000000     1.187000000     3.171000000
H    -5.564000000     1.981000000     2.864000000
O    -3.701000000    -1.788000000    -3.679000000
H    -4.369000000    -2.384000000    -4.019000000
H    -4.175000000    -0.978000000    -3.491000000
O    -1.643000000     5.584000000     2.752000000
H    -1.674000000     6.134000000     1.970000000
H    -0.722000000     5.335000000     2.833000000
O     4.443000000     3.266000000    -5.277000000
H     4.136000000     2.425000000    -4.936000000
H     3.790000000     3.510000000    -5.933000000
O    -3.149000000    -4.990000000    -4.415000000
H    -2.276000000    -5.383000000    -4.387000000
H    -3.162000000    -4.382000000    -3.676000000
O    -3.333000000     3.788000000     0.837000000
H    -3.891000000     4.536000000     1.052000000
H    -3.623000000     3.095000000     1.431000000
O     4.681000000     2.579000000     3.220000000
H     3.877000000     2.321000000     3.670000000
H     4.989000000     3.347000000     3.702000000
O     1.419000000    -1.903000000    -4.807000000
H     0.469000000    -1.858000000    -4.912000000
H     1.549000000    -2.063000000    -3.873000000
O     2.216000000    -5.341000000    -3.022000000
H     1.863000000    -4.480000000    -2.800000000
H     3.076000000    -5.157000000    -3.401000000
O     6.161000000    -2.967000000    -4.443000000
H     5.592000000    -2.905000000    -3.675000000
H     6.865000000    -2.342000000    -4.270000000
O    -2.692000000    -3.691000000    -1.659000000
H    -2.969000000    -3.112000000    -2.369000000
H    -1.766000000    -3.486000000    -1.531000000
O    -1.262000000     1.701000000    -3.599000000
H    -0.352000000     1.805000000    -3.323000000
H    -1.736000000     2.384000000    -3.124000000
O     0.627000000    -6.054000000    -6.092000000
H    -0.163000000    -6.523000000    -6.358000000
H     0.397000000    -5.652000000    -5.255000000
O    -1.219000000    -0.937000000    -4.509000000
H    -1.331000000    -0.107000000    -4.046000000
H    -2.104000000    -1.297000000    -4.573000000
O    -4.058000000    -0.595000000     2.306000000
H    -4.800000000    -1.195000000     2.240000000
H    -3.829000000    -0.396000000     1.398000000
