158
-3037.84459
C     0.063000000    -0.796000000    -1.216000000
H     0.114000000    -1.481000000    -2.059000000
C    -0.651000000    -1.126000000    -0.094000000
H    -1.113000000    -2.108000000    -0.038000000
C    -0.676000000    -0.224000000     1.003000000
H    -1.152000000    -0.448000000     1.982000000
C     0.129000000     0.900000000     1.024000000
H     0.170000000     1.448000000     1.961000000
C     0.854000000     1.229000000    -0.134000000
H     1.457000000     2.130000000    -0.202000000
C     0.808000000     0.396000000    -1.301000000
C     1.573000000     0.670000000    -2.538000000
O     2.447000000     1.512000000    -2.573000000
O     1.191000000     0.043000000    -3.493000000
O     4.977000000     3.881000000    -0.464000000
H     4.073000000     4.180000000    -0.566000000
H     5.227000000     4.170000000     0.414000000
O     3.747000000    -3.874000000    -4.076000000
H     3.787000000    -3.880000000    -3.120000000
H     2.953000000    -3.379000000    -4.279000000
O    -1.486000000     0.380000000    -4.481000000
H    -0.612000000     0.104000000    -4.204000000
H    -1.751000000     1.027000000    -3.827000000
O    -0.533000000    -3.892000000     2.656000000
H    -1.064000000    -4.428000000     2.067000000
H     0.356000000    -3.964000000     2.308000000
O     6.475000000     1.031000000     1.084000000
H     6.065000000     1.280000000     0.255000000
H     6.885000000     1.837000000     1.399000000
O    -1.574000000    -5.210000000     0.708000000
H    -2.162000000    -4.713000000     0.139000000
H    -2.077000000    -5.987000000     0.952000000
O     2.341000000     1.812000000     4.324000000
H     2.411000000     1.067000000     4.920000000
H     2.448000000     1.433000000     3.452000000
O     5.272000000    -1.698000000    -7.038000000
H     5.210000000    -1.266000000    -7.891000000
H     4.705000000    -1.180000000    -6.466000000
O    -0.298000000     2.525000000     5.480000000
H     0.348000000     1.994000000     5.013000000
H    -0.089000000     2.396000000     6.405000000
O     1.458000000    -0.977000000    -6.841000000
H     1.498000000    -0.628000000    -7.732000000
H     1.921000000    -0.329000000    -6.310000000
O    -0.738000000    -2.163000000     4.976000000
H    -0.106000000    -2.291000000     5.684000000
H    -0.470000000    -2.787000000     4.301000000
O     5.652000000     1.894000000    -6.844000000
H     5.978000000     2.788000000    -6.945000000
H     5.613000000     1.759000000    -5.897000000
O    -1.997000000     2.284000000    -2.741000000
H    -2.416000000     2.865000000    -2.105000000
H    -1.314000000     2.821000000    -3.142000000
O    -3.765000000    -4.997000000     3.168000000
H    -3.331000000    -4.258000000     2.742000000
H    -4.696000000    -4.866000000     2.985000000
O    -1.959000000     5.321000000     1.597000000
H    -2.151000000     5.955000000     2.288000000
H    -2.644000000     4.658000000     1.684000000
O    -6.052000000     2.423000000     0.996000000
H    -6.236000000     1.486000000     1.064000000
H    -6.910000000     2.841000000     1.055000000
O     1.087000000    -5.905000000     0.099000000
H     1.178000000    -5.623000000    -0.812000000
H     0.167000000    -5.745000000     0.307000000
O    -4.446000000     4.209000000     2.489000000
H    -4.816000000     3.434000000     2.064000000
H    -4.051000000     3.875000000     3.294000000
O     1.864000000     0.063000000     6.450000000
H     1.032000000     0.032000000     6.922000000
H     2.149000000    -0.850000000     6.405000000
O     4.728000000     1.504000000    -1.461000000
H     4.677000000     2.375000000    -1.067000000
H     3.894000000     1.398000000    -1.918000000
O    -3.472000000    -0.227000000     3.606000000
H    -4.397000000    -0.033000000     3.460000000
H    -3.069000000     0.628000000     3.762000000
O    -5.195000000    -1.431000000     0.481000000
H    -4.683000000    -1.944000000     1.106000000
H    -4.655000000    -0.660000000     0.305000000
O    -3.081000000    -2.498000000     2.099000000
H    -2.151000000    -2.696000000     2.210000000
H    -3.257000000    -1.810000000     2.741000000
O    -3.639000000    -2.827000000     5.791000000
H    -4.157000000    -2.097000000     6.131000000
H    -2.999000000    -2.416000000     5.210000000
O     0.815000000     3.480000000    -2.449000000
H     0.473000000     3.629000000    -1.568000000
H     1.447000000     2.769000000    -2.344000000
O     1.337000000    -2.570000000    -3.997000000
H     1.329000000    -1.703000000    -3.592000000
H     0.519000000    -2.611000000    -4.493000000
O    -0.965000000    -0.131000000     7.214000000
H    -1.050000000    -0.457000000     6.318000000
H    -1.859000000    -0.137000000     7.556000000
O    -3.367000000     0.472000000    -0.225000000
H    -3.552000000     1.410000000    -0.268000000
H    -2.420000000     0.421000000    -0.097000000
O    -1.010000000     5.792000000    -1.016000000
H    -1.858000000     6.009000000    -1.401000000
H    -1.207000000     5.589000000    -0.101000000
O    -2.818000000     2.504000000     4.467000000
H    -1.881000000     2.557000000     4.657000000
H    -3.242000000     2.618000000     5.317000000
O     5.357000000     2.211000000    -4.184000000
H     5.010000000     1.680000000    -3.467000000
H     6.298000000     2.256000000    -4.014000000
O     3.882000000     0.361000000     2.379000000
H     3.715000000    -0.534000000     2.084000000
H     4.656000000     0.635000000     1.886000000
O     2.502000000    -1.649000000     0.654000000
H     2.223000000    -2.523000000     0.929000000
H     1.685000000    -1.174000000     0.501000000
O    -4.454000000    -1.952000000    -2.241000000
H    -4.140000000    -1.233000000    -2.789000000
H    -4.781000000    -1.525000000    -1.450000000
O    -1.661000000     1.730000000    -7.006000000
H    -1.594000000     1.335000000    -6.136000000
H    -1.133000000     1.163000000    -7.568000000
O     0.605000000     4.696000000     2.106000000
H    -0.251000000     4.936000000     1.752000000
H     0.418000000     3.993000000     2.729000000
O     3.445000000     4.234000000    -3.869000000
H     4.290000000     3.870000000    -3.604000000
H     2.828000000     3.509000000    -3.761000000
O     3.100000000     5.272000000     2.952000000
H     2.150000000     5.160000000     3.005000000
H     3.322000000     5.004000000     2.060000000
O    -0.598000000    -2.522000000    -5.741000000
H     0.053000000    -2.049000000    -6.260000000
H    -1.110000000    -1.835000000    -5.315000000
O    -6.335000000     0.446000000     4.289000000
H    -7.091000000     0.961000000     4.574000000
H    -6.020000000     0.021000000     5.086000000
O    -3.377000000    -4.255000000    -1.264000000
H    -3.698000000    -3.377000000    -1.471000000
H    -4.105000000    -4.674000000    -0.805000000
O     0.160000000     6.053000000    -3.935000000
H     0.496000000     5.558000000    -3.189000000
H    -0.211000000     6.846000000    -3.548000000
O     2.732000000     1.181000000    -5.445000000
H     3.499000000     1.664000000    -5.138000000
H     2.382000000     0.762000000    -4.659000000
O     1.949000000    -4.091000000     1.733000000
H     1.960000000    -4.827000000     1.122000000
H     2.734000000    -4.210000000     2.267000000
O    -2.239000000    -5.582000000    -3.212000000
H    -2.617000000    -5.178000000    -2.431000000
H    -1.310000000    -5.683000000    -3.005000000
O     2.591000000     5.171000000     0.233000000
H     1.805000000     5.224000000     0.776000000
H     2.555000000     5.952000000    -0.319000000
O     4.495000000    -1.638000000    -1.497000000
H     4.638000000    -0.700000000    -1.621000000
H     3.917000000    -1.694000000    -0.736000000
O     2.912000000     6.736000000    -3.731000000
H     3.200000000     5.823000000    -3.711000000
H     1.965000000     6.685000000    -3.862000000
