158
-3051.29145
C     1.254000000     0.190000000    -0.642000000
H     2.260000000     0.394000000    -0.999000000
C     0.885000000     0.481000000     0.684000000
H     1.644000000     0.821000000     1.384000000
C    -0.405000000     0.320000000     1.115000000
H    -0.700000000     0.491000000     2.151000000
C    -1.349000000    -0.166000000     0.209000000
H    -2.319000000    -0.358000000     0.660000000
C    -0.960000000    -0.531000000    -1.060000000
H    -1.656000000    -1.068000000    -1.699000000
C     0.370000000    -0.482000000    -1.431000000
C     0.909000000    -0.999000000    -2.780000000
O     2.078000000    -1.194000000    -3.000000000
O     0.087000000    -0.939000000    -3.646000000
O     5.576000000     1.040000000    -5.545000000
H     5.695000000     0.209000000    -5.085000000
H     4.719000000     1.353000000    -5.257000000
O    -4.166000000     4.075000000     1.890000000
H    -4.693000000     3.857000000     2.658000000
H    -4.706000000     3.810000000     1.145000000
O     4.708000000    -4.651000000    -4.062000000
H     3.984000000    -4.620000000    -4.688000000
H     4.444000000    -4.056000000    -3.361000000
O     2.310000000    -2.631000000    -5.124000000
H     2.242000000    -2.069000000    -4.352000000
H     1.422000000    -2.658000000    -5.479000000
O     2.231000000    -5.405000000    -1.665000000
H     1.711000000    -5.768000000    -2.382000000
H     1.676000000    -5.503000000    -0.892000000
O     5.092000000     0.074000000    -1.033000000
H     4.938000000     0.698000000    -1.742000000
H     4.972000000    -0.785000000    -1.439000000
O     4.520000000     2.208000000    -3.010000000
H     3.938000000     1.715000000    -3.589000000
H     3.944000000     2.548000000    -2.325000000
O     5.348000000     2.773000000     0.295000000
H     5.952000000     2.885000000    -0.439000000
H     5.190000000     1.829000000     0.332000000
O    -0.842000000    -4.688000000    -2.299000000
H     0.098000000    -4.570000000    -2.434000000
H    -1.249000000    -4.200000000    -3.015000000
O    -3.630000000    -4.728000000    -4.597000000
H    -4.303000000    -4.081000000    -4.807000000
H    -2.803000000    -4.266000000    -4.735000000
O    -0.189000000    -3.225000000     1.673000000
H     0.204000000    -2.861000000     2.466000000
H    -0.029000000    -2.564000000     1.000000000
O    -4.237000000    -0.917000000     4.871000000
H    -5.024000000    -0.373000000     4.856000000
H    -4.235000000    -1.359000000     4.022000000
O     1.853000000     0.244000000    -7.141000000
H     1.752000000    -0.440000000    -7.803000000
H     2.508000000     0.838000000    -7.508000000
O    -1.347000000     3.670000000     3.332000000
H    -2.008000000     3.792000000     4.014000000
H    -1.648000000     2.905000000     2.842000000
O    -4.580000000    -1.543000000     2.215000000
H    -4.038000000    -2.085000000     1.641000000
H    -5.427000000    -1.497000000     1.771000000
O     3.765000000    -3.787000000    -0.148000000
H     3.161000000    -4.459000000    -0.463000000
H     3.413000000    -3.530000000     0.704000000
O     2.750000000     0.754000000    -4.551000000
H     2.412000000     0.527000000    -5.417000000
H     2.458000000     0.040000000    -3.985000000
O     0.346000000     5.817000000     2.603000000
H     0.566000000     6.292000000     3.405000000
H    -0.335000000     5.199000000     2.870000000
O    -0.631000000    -0.441000000    -6.227000000
H     0.059000000     0.077000000    -6.641000000
H    -0.339000000    -0.550000000    -5.322000000
O    -4.205000000    -2.126000000    -1.261000000
H    -3.681000000    -2.578000000    -0.599000000
H    -4.864000000    -2.768000000    -1.524000000
O     4.736000000    -2.651000000    -6.670000000
H     3.952000000    -2.810000000    -6.144000000
H     5.393000000    -2.359000000    -6.039000000
O     3.022000000    -0.315000000     3.116000000
H     3.047000000     0.604000000     3.382000000
H     2.121000000    -0.590000000     3.287000000
O     0.623000000    -1.623000000     3.644000000
H     0.971000000    -1.872000000     4.500000000
H     0.059000000    -0.871000000     3.824000000
O    -5.799000000     0.120000000    -1.719000000
H    -5.289000000    -0.596000000    -1.341000000
H    -5.155000000     0.656000000    -2.181000000
O     4.442000000    -2.229000000    -2.291000000
H     4.174000000    -2.713000000    -1.509000000
H     3.626000000    -1.875000000    -2.645000000
O    -6.191000000     2.406000000    -0.260000000
H    -6.079000000     3.018000000    -0.987000000
H    -6.135000000     1.540000000    -0.665000000
O    -1.535000000     0.230000000     4.821000000
H    -2.468000000     0.105000000     4.647000000
H    -1.481000000     0.348000000     5.770000000
O    -4.419000000     0.906000000    -5.682000000
H    -3.826000000     0.261000000    -5.297000000
H    -5.118000000     0.384000000    -6.076000000
O    -1.955000000    -4.207000000     3.751000000
H    -1.994000000    -4.907000000     3.100000000
H    -1.481000000    -3.500000000     3.314000000
O     1.758000000     3.718000000     4.007000000
H     0.851000000     4.004000000     3.898000000
H     2.105000000     3.675000000     3.116000000
O     1.445000000    -2.410000000     6.227000000
H     0.941000000    -3.223000000     6.251000000
H     1.352000000    -2.044000000     7.107000000
O    -3.614000000    -2.209000000     7.265000000
H    -3.610000000    -1.893000000     6.362000000
H    -2.845000000    -1.802000000     7.665000000
O     2.466000000     3.321000000    -1.436000000
H     2.709000000     4.116000000    -1.910000000
H     1.519000000     3.248000000    -1.559000000
O     3.476000000    -3.455000000     2.495000000
H     3.799000000    -3.986000000     3.223000000
H     3.644000000    -2.552000000     2.763000000
O    -3.425000000     4.380000000     5.014000000
H    -3.480000000     4.555000000     5.953000000
H    -4.185000000     3.827000000     4.828000000
O     0.382000000    -3.506000000    -6.996000000
H    -0.024000000    -3.509000000    -7.863000000
H     1.228000000    -3.936000000    -7.126000000
O     5.785000000    -1.614000000    -4.399000000
H     5.152000000    -1.736000000    -3.692000000
H     6.620000000    -1.474000000    -3.952000000
O    -3.118000000    -2.030000000    -6.918000000
H    -3.071000000    -1.923000000    -5.968000000
H    -2.270000000    -1.721000000    -7.236000000
O    -3.461000000     1.757000000    -2.471000000
H    -3.489000000     2.663000000    -2.164000000
H    -2.995000000     1.802000000    -3.306000000
O     3.040000000     3.365000000     1.502000000
H     3.882000000     2.911000000     1.519000000
H     2.768000000     3.331000000     0.585000000
O     5.236000000    -0.571000000     1.585000000
H     5.164000000    -0.297000000     0.671000000
H     4.348000000    -0.482000000     1.932000000
O    -1.168000000    -3.164000000    -4.746000000
H    -0.855000000    -2.334000000    -4.387000000
H    -0.718000000    -3.246000000    -5.587000000
O     3.142000000     1.855000000     5.281000000
H     2.896000000     1.512000000     6.140000000
H     2.555000000     2.598000000     5.141000000
O    -2.994000000    -3.720000000     0.979000000
H    -2.065000000    -3.547000000     0.827000000
H    -3.011000000    -4.575000000     1.410000000
O    -3.324000000    -0.885000000    -3.847000000
H    -3.699000000    -1.697000000    -3.506000000
H    -2.907000000    -0.476000000    -3.089000000
O    -0.992000000     2.542000000    -3.925000000
H    -0.888000000     2.855000000    -3.026000000
H    -0.390000000     1.800000000    -3.991000000
O    -0.585000000     2.906000000    -1.181000000
H    -0.699000000     2.080000000    -0.712000000
H    -1.143000000     3.527000000    -0.714000000
O    -1.793000000     4.874000000     0.461000000
H    -2.654000000     4.718000000     0.848000000
H    -1.353000000     5.454000000     1.081000000
