158
-3052.55478
C     1.045000000     0.284000000    -0.995000000
H     1.914000000     0.411000000    -1.636000000
C     0.964000000     0.896000000     0.276000000
H     1.852000000     1.339000000     0.721000000
C    -0.117000000     0.607000000     1.088000000
H    -0.128000000     0.865000000     2.138000000
C    -1.134000000    -0.260000000     0.676000000
H    -1.891000000    -0.655000000     1.350000000
C    -1.082000000    -0.813000000    -0.599000000
H    -1.880000000    -1.475000000    -0.923000000
C     0.003000000    -0.524000000    -1.463000000
C     0.118000000    -1.235000000    -2.818000000
O     0.960000000    -0.850000000    -3.670000000
O    -0.637000000    -2.202000000    -3.037000000
O     0.731000000     4.177000000     6.278000000
H     1.655000000     4.268000000     6.509000000
H     0.388000000     5.070000000     6.305000000
O     2.400000000     1.177000000     4.327000000
H     2.619000000     0.309000000     4.667000000
H     3.028000000     1.323000000     3.620000000
O    -4.023000000    -5.591000000    -3.702000000
H    -3.181000000    -5.470000000    -4.141000000
H    -4.527000000    -6.144000000    -4.298000000
O    -2.633000000     5.066000000     4.044000000
H    -2.474000000     4.519000000     4.813000000
H    -1.928000000     4.839000000     3.439000000
O     1.336000000    -3.936000000    -4.231000000
H     0.761000000    -3.388000000    -3.697000000
H     1.175000000    -3.647000000    -5.129000000
O     3.725000000     2.251000000    -4.750000000
H     3.750000000     1.397000000    -4.317000000
H     2.794000000     2.470000000    -4.795000000
O    -4.530000000     0.418000000     1.433000000
H    -4.411000000    -0.518000000     1.595000000
H    -5.465000000     0.567000000     1.571000000
O    -1.805000000    -5.885000000    -5.556000000
H    -1.622000000    -4.974000000    -5.785000000
H    -1.002000000    -6.193000000    -5.135000000
O     3.707000000    -0.357000000    -3.405000000
H     2.800000000    -0.655000000    -3.336000000
H     4.021000000    -0.731000000    -4.229000000
O     4.905000000     0.415000000    -1.133000000
H     4.466000000     0.206000000    -1.957000000
H     5.449000000    -0.350000000    -0.950000000
O    -0.218000000    -4.259000000    -1.354000000
H    -0.876000000    -4.362000000    -0.666000000
H    -0.490000000    -3.476000000    -1.831000000
O     1.331000000    -6.455000000    -1.666000000
H     0.664000000    -7.002000000    -2.082000000
H     0.924000000    -5.592000000    -1.596000000
O     2.431000000    -4.017000000     3.333000000
H     2.336000000    -4.686000000     2.656000000
H     1.558000000    -3.632000000     3.414000000
O     1.649000000    -2.224000000     0.774000000
H     1.411000000    -2.117000000     1.695000000
H     1.382000000    -1.403000000     0.361000000
O     3.237000000    -1.391000000     4.592000000
H     3.012000000    -2.217000000     4.164000000
H     4.069000000    -1.568000000     5.032000000
O     1.018000000     0.538000000    -7.889000000
H     1.193000000    -0.103000000    -8.579000000
H     0.869000000     1.359000000    -8.358000000
O     4.085000000    -3.432000000     0.209000000
H     3.172000000    -3.145000000     0.162000000
H     4.172000000    -3.811000000     1.083000000
O    -2.254000000     1.200000000     4.126000000
H    -1.337000000     1.185000000     4.399000000
H    -2.284000000     1.846000000     3.420000000
O     2.284000000    -1.205000000    -6.189000000
H     1.966000000    -0.332000000    -6.420000000
H     1.942000000    -1.358000000    -5.308000000
O    -0.219000000     5.164000000     2.830000000
H     0.503000000     5.792000000     2.847000000
H     0.151000000     4.365000000     3.206000000
O    -0.643000000     0.268000000    -5.658000000
H    -0.114000000     0.162000000    -6.449000000
H    -0.189000000    -0.253000000    -4.995000000
O    -4.794000000    -2.350000000     1.416000000
H    -5.451000000    -3.024000000     1.594000000
H    -4.471000000    -2.557000000     0.539000000
O     3.310000000     2.734000000     6.717000000
H     2.758000000     2.494000000     5.972000000
H     4.202000000     2.711000000     6.371000000
O     6.011000000     0.285000000     3.587000000
H     5.344000000     0.466000000     2.925000000
H     6.703000000     0.922000000     3.411000000
O     0.184000000    -2.247000000     3.271000000
H    -0.029000000    -1.809000000     4.095000000
H    -0.653000000    -2.315000000     2.812000000
O    -3.120000000     1.550000000    -4.874000000
H    -3.611000000     0.819000000    -4.500000000
H    -2.208000000     1.261000000    -4.856000000
O    -3.931000000     2.739000000    -1.398000000
H    -4.308000000     1.960000000    -1.808000000
H    -3.297000000     2.395000000    -0.769000000
O    -2.138000000    -3.966000000     3.265000000
H    -1.751000000    -4.122000000     4.127000000
H    -3.082000000    -3.997000000     3.418000000
O     3.836000000     3.459000000     2.469000000
H     4.062000000     3.758000000     3.350000000
H     3.688000000     4.264000000     1.973000000
O     0.754000000     1.475000000     7.176000000
H     1.602000000     1.044000000     7.290000000
H     0.945000000     2.408000000     7.275000000
O     0.820000000    -6.527000000    -4.755000000
H     1.188000000    -5.715000000    -4.406000000
H     1.348000000    -6.715000000    -5.531000000
O     1.036000000     4.550000000    -3.494000000
H     1.931000000     4.858000000    -3.635000000
H     1.074000000     3.611000000    -3.675000000
O    -2.478000000     3.050000000     6.252000000
H    -2.514000000     2.344000000     5.607000000
H    -1.545000000     3.249000000     6.337000000
O    -5.448000000     0.534000000    -2.273000000
H    -5.975000000     1.072000000    -2.863000000
H    -5.977000000    -0.251000000    -2.127000000
O    -5.072000000     4.161000000     2.621000000
H    -5.198000000     4.457000000     1.719000000
H    -4.122000000     4.125000000     2.731000000
O    -3.827000000    -0.950000000     4.205000000
H    -3.414000000    -0.091000000     4.289000000
H    -3.617000000    -1.230000000     3.314000000
O    -4.127000000    -0.965000000    -4.141000000
H    -4.583000000    -0.563000000    -3.401000000
H    -4.805000000    -1.461000000    -4.600000000
O    -0.490000000    -1.058000000     5.609000000
H     0.359000000    -0.616000000     5.586000000
H    -0.629000000    -1.264000000     6.533000000
O    -1.760000000     5.332000000     0.718000000
H    -2.073000000     4.428000000     0.745000000
H    -1.043000000     5.356000000     1.352000000
O     4.857000000     3.404000000    -0.814000000
H     4.697000000     2.601000000    -0.319000000
H     5.236000000     3.104000000    -1.641000000
O    -1.572000000    -3.098000000    -5.859000000
H    -1.238000000    -2.753000000    -5.031000000
H    -2.231000000    -2.462000000    -6.136000000
O    -5.899000000    -2.259000000    -1.335000000
H    -5.127000000    -2.533000000    -1.831000000
H    -6.602000000    -2.824000000    -1.654000000
O     4.275000000     0.778000000     1.675000000
H     4.535000000     0.759000000     0.753000000
H     3.988000000     1.680000000     1.824000000
O    -1.851000000    -4.568000000     0.620000000
H    -2.562000000    -5.209000000     0.645000000
H    -1.638000000    -4.411000000     1.540000000
O    -3.576000000    -2.987000000    -2.411000000
H    -3.813000000    -3.226000000    -3.307000000
H    -2.639000000    -2.800000000    -2.453000000
O     1.016000000     2.040000000    -4.016000000
H     0.402000000     1.836000000    -4.722000000
H     1.168000000     1.202000000    -3.581000000
O    -2.494000000     2.437000000     1.407000000
H    -1.714000000     2.143000000     0.937000000
H    -3.112000000     1.710000000     1.324000000
O     0.117000000     2.793000000     4.013000000
H     0.958000000     2.392000000     3.795000000
H     0.233000000     3.125000000     4.904000000
