158
-3040.34015
C     0.854000000    -0.465000000    -1.151000000
H     1.475000000    -0.818000000    -1.970000000
C     0.854000000     0.812000000    -0.551000000
H     1.623000000     1.518000000    -0.853000000
C     0.006000000     1.146000000     0.496000000
H    -0.054000000     2.242000000     0.751000000
C    -0.942000000     0.178000000     0.966000000
H    -1.619000000     0.356000000     1.797000000
C    -0.958000000    -1.080000000     0.358000000
H    -1.694000000    -1.809000000     0.686000000
C    -0.039000000    -1.433000000    -0.641000000
C    -0.016000000    -2.795000000    -1.319000000
O     0.887000000    -3.022000000    -2.111000000
O    -0.735000000    -3.559000000    -0.772000000
O    -1.366000000    -4.556000000    -6.028000000
H    -1.662000000    -4.902000000    -5.186000000
H    -0.575000000    -4.060000000    -5.818000000
O    -2.894000000     3.792000000     3.625000000
H    -2.388000000     3.122000000     4.083000000
H    -2.551000000     3.783000000     2.731000000
O     1.472000000    -4.006000000     0.933000000
H     1.542000000    -4.935000000     0.714000000
H     0.699000000    -3.704000000     0.457000000
O    -4.874000000     0.209000000     0.045000000
H    -5.340000000    -0.515000000    -0.374000000
H    -4.823000000    -0.042000000     0.967000000
O     3.694000000    -5.727000000     0.495000000
H     3.976000000    -4.949000000     0.014000000
H     2.938000000    -6.050000000     0.006000000
O     4.901000000    -3.083000000    -0.479000000
H     4.815000000    -2.774000000     0.423000000
H     5.825000000    -2.952000000    -0.690000000
O     3.403000000    -2.777000000    -2.837000000
H     2.458000000    -2.632000000    -2.871000000
H     3.605000000    -2.825000000    -1.903000000
O    -3.923000000    -2.860000000     1.842000000
H    -3.266000000    -3.525000000     1.638000000
H    -4.309000000    -2.637000000     0.995000000
O    -0.274000000     5.790000000    -1.681000000
H    -0.404000000     5.318000000    -0.858000000
H     0.425000000     5.311000000    -2.124000000
O     4.160000000     0.306000000    -0.263000000
H     3.592000000    -0.251000000     0.269000000
H     5.000000000    -0.153000000    -0.276000000
O    -1.381000000    -4.876000000     1.845000000
H    -0.641000000    -5.483000000     1.853000000
H    -1.131000000    -4.200000000     1.216000000
O     0.427000000    -6.769000000     2.033000000
H     1.040000000    -7.259000000     2.581000000
H     0.560000000    -7.118000000     1.152000000
O    -0.831000000     6.118000000     3.655000000
H    -0.189000000     5.825000000     4.301000000
H    -1.507000000     5.441000000     3.665000000
O     0.680000000    -2.381000000     3.266000000
H     0.468000000    -2.805000000     2.434000000
H     0.912000000    -1.484000000     3.024000000
O     1.493000000    -0.345000000    -4.814000000
H     0.582000000    -0.302000000    -4.523000000
H     1.487000000     0.058000000    -5.682000000
O     3.520000000    -2.985000000     2.553000000
H     2.961000000    -3.489000000     1.962000000
H     2.937000000    -2.714000000     3.262000000
O     4.392000000    -1.186000000    -5.075000000
H     3.470000000    -0.948000000    -4.983000000
H     4.474000000    -2.016000000    -4.605000000
O    -0.797000000     2.098000000     4.365000000
H    -0.525000000     1.338000000     4.879000000
H     0.019000000     2.457000000     4.019000000
O     3.008000000     1.372000000    -3.181000000
H     2.505000000     0.759000000    -3.716000000
H     2.892000000     1.059000000    -2.284000000
O     4.478000000     0.057000000     3.956000000
H     3.580000000     0.262000000     3.696000000
H     4.810000000     0.871000000     4.335000000
O    -2.779000000     2.128000000    -3.530000000
H    -3.368000000     2.598000000    -4.120000000
H    -3.036000000     2.418000000    -2.654000000
O    -2.822000000    -8.204000000    -1.295000000
H    -2.473000000    -8.940000000    -1.797000000
H    -2.063000000    -7.850000000    -0.831000000
O     1.581000000    -7.404000000    -0.330000000
H     1.944000000    -8.289000000    -0.322000000
H     1.284000000    -7.275000000    -1.230000000
O     2.559000000     2.791000000     2.577000000
H     2.449000000     3.738000000     2.492000000
H     3.429000000     2.618000000     2.216000000
O    -0.645000000     7.679000000     1.159000000
H    -1.099000000     7.157000000     0.498000000
H    -0.445000000     7.057000000     1.859000000
O     0.145000000    -7.141000000    -2.981000000
H     0.989000000    -6.694000000    -3.038000000
H    -0.057000000    -7.388000000    -3.884000000
O     1.885000000     4.420000000    -2.681000000
H     2.590000000     4.135000000    -2.100000000
H     2.166000000     4.142000000    -3.553000000
O    -2.438000000     1.637000000     6.712000000
H    -1.785000000     2.192000000     7.139000000
H    -2.181000000     1.631000000     5.790000000
O     2.501000000    -5.678000000    -2.724000000
H     3.307000000    -5.580000000    -3.231000000
H     2.069000000    -4.827000000    -2.794000000
O    -5.355000000     2.630000000     2.825000000
H    -5.343000000     1.697000000     2.613000000
H    -4.450000000     2.833000000     3.062000000
O     5.258000000    -4.890000000    -3.576000000
H     4.664000000    -4.288000000    -3.126000000
H     6.114000000    -4.465000000    -3.523000000
O    -4.937000000    -0.092000000     2.855000000
H    -4.232000000    -0.291000000     3.472000000
H    -5.663000000    -0.650000000     3.132000000
O    -2.851000000    -2.284000000    -3.201000000
H    -2.423000000    -3.119000000    -3.392000000
H    -3.583000000    -2.516000000    -2.629000000
O    -2.379000000     4.286000000     0.715000000
H    -2.670000000     3.569000000     0.151000000
H    -2.564000000     5.078000000     0.210000000
O     1.465000000     5.383000000     5.400000000
H     2.030000000     5.758000000     4.725000000
H     2.052000000     4.848000000     5.934000000
O     4.699000000     2.611000000     0.912000000
H     4.312000000     1.736000000     0.879000000
H     5.642000000     2.455000000     0.960000000
O     4.389000000     4.159000000    -1.355000000
H     4.237000000     3.692000000    -0.534000000
H     5.337000000     4.118000000    -1.482000000
O     5.707000000     1.012000000    -3.803000000
H     4.790000000     0.905000000    -3.551000000
H     5.919000000     0.210000000    -4.280000000
O    -1.421000000    -4.553000000    -3.236000000
H    -1.142000000    -4.175000000    -2.402000000
H    -0.981000000    -5.403000000    -3.273000000
O    -5.942000000    -2.564000000    -0.404000000
H    -6.693000000    -3.044000000    -0.055000000
H    -5.222000000    -3.194000000    -0.382000000
O     1.934000000     0.058000000     2.324000000
H     1.481000000     0.066000000     1.481000000
H     1.939000000     0.975000000     2.601000000
O     1.043000000    -3.494000000    -4.768000000
H     1.394000000    -2.643000000    -5.030000000
H     0.742000000    -3.362000000    -3.869000000
O     3.238000000    -5.149000000    -6.318000000
H     3.305000000    -4.377000000    -5.756000000
H     3.350000000    -4.809000000    -7.206000000
O    -3.645000000    -3.945000000    -0.892000000
H    -3.945000000    -4.683000000    -1.424000000
H    -2.695000000    -4.052000000    -0.849000000
O     4.397000000     3.407000000    -5.001000000
H     4.330000000     2.700000000    -4.359000000
H     5.127000000     3.151000000    -5.564000000
O    -2.893000000     2.127000000    -0.906000000
H    -2.051000000     1.687000000    -0.783000000
H    -3.533000000     1.416000000    -0.923000000
O    -1.075000000     0.108000000    -4.353000000
H    -1.276000000     0.968000000    -3.985000000
H    -1.765000000    -0.464000000    -4.017000000
O     0.476000000     0.105000000     5.715000000
H     0.676000000    -0.765000000     6.063000000
H     1.211000000     0.650000000     5.997000000
