158
-2997.71151
C     0.566000000    -1.295000000     0.461000000
H     1.168000000    -2.190000000     0.598000000
C     1.218000000    -0.349000000    -0.195000000
H     2.256000000    -0.556000000    -0.439000000
C     0.636000000     0.885000000    -0.471000000
H     1.215000000     1.552000000    -1.167000000
C    -0.670000000     1.214000000    -0.064000000
H    -1.002000000     2.188000000    -0.414000000
C    -1.413000000     0.192000000     0.542000000
H    -2.479000000     0.349000000     0.691000000
C    -0.809000000    -1.084000000     0.852000000
C    -1.538000000    -2.223000000     1.438000000
O    -1.005000000    -3.282000000     1.438000000
O    -2.698000000    -2.084000000     1.763000000
O     4.411000000    -2.219000000     1.579000000
H     4.283000000    -1.810000000     2.434000000
H     4.743000000    -1.514000000     1.023000000
O    -0.384000000    -0.686000000     4.700000000
H    -1.027000000    -0.922000000     4.032000000
H     0.402000000    -0.454000000     4.205000000
O     6.203000000     0.523000000    -3.240000000
H     6.638000000    -0.201000000    -3.690000000
H     6.893000000     1.174000000    -3.113000000
O    -0.974000000    -4.118000000    -2.352000000
H    -1.179000000    -4.013000000    -3.281000000
H    -1.811000000    -4.346000000    -1.947000000
O     0.888000000     4.836000000    -2.717000000
H     1.427000000     5.142000000    -1.988000000
H     1.002000000     5.502000000    -3.395000000
O     4.057000000     5.171000000    -3.440000000
H     4.378000000     6.014000000    -3.120000000
H     4.332000000     4.541000000    -2.774000000
O     0.360000000    -4.154000000     3.664000000
H    -0.153000000    -4.108000000     2.857000000
H     0.723000000    -3.275000000     3.768000000
O     3.401000000     5.143000000     2.649000000
H     3.542000000     5.639000000     3.455000000
H     4.029000000     5.511000000     2.028000000
O    -3.734000000     3.447000000     0.846000000
H    -3.624000000     2.690000000     0.270000000
H    -4.680000000     3.591000000     0.874000000
O    -0.461000000    -6.739000000     2.711000000
H    -0.362000000    -5.884000000     3.130000000
H    -0.116000000    -6.613000000     1.827000000
O     0.353000000     5.400000000     1.339000000
H     0.602000000     5.274000000     2.255000000
H     1.163000000     5.666000000     0.905000000
O     2.756000000     6.635000000    -0.938000000
H     3.407000000     7.024000000    -1.521000000
H     2.009000000     7.233000000    -0.980000000
O    -4.459000000    -3.282000000     3.287000000
H    -3.750000000    -2.930000000     2.749000000
H    -4.228000000    -3.033000000     4.182000000
O    -1.860000000     5.252000000    -2.405000000
H    -1.868000000     5.344000000    -1.453000000
H    -0.940000000     5.108000000    -2.625000000
O    -2.403000000     5.565000000     0.343000000
H    -1.574000000     5.341000000     0.766000000
H    -2.992000000     4.847000000     0.576000000
O     1.095000000     1.647000000    -6.026000000
H     0.436000000     1.778000000    -5.345000000
H     1.558000000     0.851000000    -5.762000000
O    -2.229000000     0.975000000    -4.731000000
H    -1.598000000     1.634000000    -4.442000000
H    -3.041000000     1.464000000    -4.865000000
O    -2.111000000    -4.562000000     5.073000000
H    -1.314000000    -5.070000000     4.919000000
H    -2.804000000    -5.218000000     5.140000000
O     2.755000000    -5.330000000     4.305000000
H     2.514000000    -5.081000000     5.198000000
H     2.009000000    -5.058000000     3.771000000
O    -0.237000000     2.523000000    -3.783000000
H     0.171000000     2.080000000    -3.040000000
H    -0.087000000     3.454000000    -3.619000000
O    -6.560000000    -3.564000000    -1.039000000
H    -6.263000000    -3.962000000    -0.221000000
H    -6.493000000    -4.266000000    -1.685000000
O     3.551000000     0.746000000    -2.303000000
H     3.901000000     0.285000000    -1.541000000
H     4.262000000     0.723000000    -2.944000000
O     3.014000000    -0.806000000    -5.537000000
H     3.620000000    -0.616000000    -6.253000000
H     3.571000000    -1.132000000    -4.831000000
O     2.188000000    -1.964000000     3.449000000
H     2.073000000    -1.216000000     2.862000000
H     2.505000000    -1.580000000     4.266000000
O    -3.822000000     2.813000000    -2.385000000
H    -3.325000000     3.546000000    -2.749000000
H    -4.523000000     3.226000000    -1.881000000
O    -4.446000000     1.141000000    -0.583000000
H    -4.115000000     1.627000000    -1.338000000
H    -5.388000000     1.067000000    -0.740000000
O     1.347000000     3.177000000     3.855000000
H     1.967000000     3.718000000     3.366000000
H     0.875000000     3.797000000     4.412000000
O    -4.683000000    -0.992000000     5.764000000
H    -4.347000000    -0.522000000     5.001000000
H    -4.181000000    -0.644000000     6.500000000
O     1.096000000     0.656000000     2.642000000
H     0.612000000     0.792000000     1.828000000
H     1.237000000     1.538000000     2.987000000
O    -2.684000000    -5.500000000     1.192000000
H    -2.410000000    -4.608000000     1.405000000
H    -2.268000000    -5.684000000     0.349000000
O     3.652000000    -2.748000000    -3.462000000
H     3.602000000    -3.701000000    -3.543000000
H     2.803000000    -2.494000000    -3.100000000
O    -6.025000000     1.947000000     3.133000000
H    -6.510000000     1.131000000     3.009000000
H    -6.313000000     2.509000000     2.414000000
O    -4.054000000    -2.157000000    -0.586000000
H    -3.839000000    -1.239000000    -0.754000000
H    -3.627000000    -2.354000000     0.248000000
O    -2.164000000     5.318000000     3.416000000
H    -2.536000000     6.021000000     2.883000000
H    -2.679000000     4.544000000     3.185000000
O    -5.639000000    -1.195000000    -2.715000000
H    -5.141000000    -2.008000000    -2.798000000
H    -5.557000000    -0.957000000    -1.792000000
O    -3.566000000    -4.660000000    -1.679000000
H    -3.651000000    -3.866000000    -1.151000000
H    -3.936000000    -4.422000000    -2.530000000
O     3.831000000    -6.589000000     0.719000000
H     3.728000000    -5.839000000     0.133000000
H     3.023000000    -6.605000000     1.232000000
O    -2.238000000     2.132000000     4.902000000
H    -1.688000000     1.540000000     5.414000000
H    -2.331000000     1.699000000     4.054000000
O     5.753000000    -0.006000000    -0.386000000
H     5.985000000     0.014000000    -1.314000000
H     6.379000000    -0.615000000     0.005000000
O     1.336000000    -2.712000000    -2.158000000
H     0.457000000    -3.091000000    -2.166000000
H     1.191000000    -1.771000000    -2.059000000
O     0.334000000    -5.321000000     0.506000000
H    -0.178000000    -4.660000000     0.972000000
H     0.263000000    -5.073000000    -0.416000000
O     4.739000000     3.339000000    -1.430000000
H     3.903000000     3.126000000    -1.016000000
H     5.365000000     2.734000000    -1.032000000
O     3.659000000    -4.008000000    -0.429000000
H     2.843000000    -3.709000000    -0.830000000
H     3.857000000    -3.348000000     0.235000000
O     1.230000000    -7.854000000    -0.650000000
H     1.000000000    -8.008000000    -1.567000000
H     0.850000000    -6.999000000    -0.449000000
O    -5.278000000    -4.513000000     1.197000000
H    -5.262000000    -3.959000000     1.978000000
H    -4.441000000    -4.978000000     1.216000000
O     1.285000000     0.119000000    -3.351000000
H     2.062000000     0.386000000    -2.860000000
H     1.628000000    -0.410000000    -4.072000000
O    -1.634000000    -1.625000000    -3.930000000
H    -1.520000000    -0.701000000    -3.707000000
H    -2.575000000    -1.721000000    -4.077000000
O    -3.760000000     0.389000000     3.486000000
H    -3.651000000    -0.230000000     2.764000000
H    -4.422000000     1.006000000     3.173000000
