158
-3023.08159
C     0.435000000    -1.412000000     0.026000000
H     0.838000000    -2.417000000    -0.066000000
C     0.285000000    -0.688000000    -1.130000000
H     0.576000000    -1.027000000    -2.120000000
C    -0.143000000     0.670000000    -1.018000000
H    -0.426000000     1.214000000    -1.910000000
C    -0.415000000     1.233000000     0.217000000
H    -0.664000000     2.292000000     0.213000000
C    -0.386000000     0.377000000     1.334000000
H    -0.660000000     0.787000000     2.302000000
C    -0.019000000    -0.975000000     1.244000000
C    -0.051000000    -1.821000000     2.540000000
O     0.154000000    -3.017000000     2.565000000
O    -0.288000000    -1.241000000     3.574000000
O     3.235000000    -1.080000000     2.767000000
H     2.328000000    -0.778000000     2.820000000
H     3.518000000    -0.835000000     1.886000000
O    -3.828000000    -1.104000000     7.486000000
H    -3.786000000    -0.195000000     7.189000000
H    -3.146000000    -1.552000000     6.986000000
O     3.524000000    -2.190000000    -2.711000000
H     3.041000000    -1.484000000    -3.140000000
H     4.434000000    -1.895000000    -2.716000000
O    -4.091000000    -2.393000000     1.854000000
H    -3.287000000    -2.895000000     1.725000000
H    -3.934000000    -1.567000000     1.397000000
O     1.722000000    -4.588000000     1.061000000
H     1.128000000    -5.232000000     0.675000000
H     1.229000000    -4.215000000     1.791000000
O    -2.473000000     1.610000000    -6.708000000
H    -3.062000000     0.932000000    -7.039000000
H    -3.016000000     2.396000000    -6.660000000
O     4.757000000     3.048000000    -0.499000000
H     4.042000000     2.487000000    -0.200000000
H     4.341000000     3.889000000    -0.684000000
O    -3.407000000     6.330000000    -1.706000000
H    -3.568000000     7.064000000    -1.114000000
H    -2.871000000     5.723000000    -1.195000000
O     0.085000000    -1.862000000    -4.642000000
H    -0.054000000    -2.776000000    -4.892000000
H     1.033000000    -1.743000000    -4.686000000
O    -3.102000000     4.394000000    -3.715000000
H    -2.204000000     4.077000000    -3.613000000
H    -3.111000000     5.236000000    -3.260000000
O     1.347000000     0.920000000     7.270000000
H     1.273000000     0.940000000     6.316000000
H     1.254000000     1.835000000     7.537000000
O    -5.233000000     1.580000000     0.183000000
H    -6.083000000     1.366000000    -0.203000000
H    -4.726000000     0.772000000     0.106000000
O    -1.140000000    -2.803000000     5.604000000
H    -1.080000000    -2.611000000     4.668000000
H    -0.287000000    -2.551000000     5.956000000
O     1.761000000     2.149000000    -3.851000000
H     1.446000000     2.767000000    -4.512000000
H     0.964000000     1.782000000    -3.467000000
O     0.590000000    -7.046000000     1.361000000
H    -0.101000000    -7.705000000     1.294000000
H     1.404000000    -7.548000000     1.330000000
O    -0.624000000     1.109000000    -4.593000000
H    -0.716000000     0.165000000    -4.720000000
H    -1.154000000     1.497000000    -5.289000000
O    -2.053000000     4.751000000     0.090000000
H    -2.301000000     3.900000000     0.451000000
H    -1.097000000     4.719000000     0.037000000
O    -0.956000000    -5.629000000     3.282000000
H    -0.199000000    -5.965000000     2.803000000
H    -0.880000000    -4.677000000     3.213000000
O     2.026000000     2.888000000     1.893000000
H     2.338000000     3.541000000     2.519000000
H     1.641000000     3.401000000     1.182000000
O    -0.983000000    -6.136000000     6.336000000
H    -0.238000000    -5.539000000     6.270000000
H    -1.638000000    -5.768000000     5.742000000
O     0.681000000     4.524000000    -0.462000000
H     1.144000000     5.362000000    -0.442000000
H     0.486000000     4.380000000    -1.388000000
O    -0.810000000     3.942000000     6.164000000
H    -0.631000000     4.196000000     5.259000000
H    -0.991000000     4.768000000     6.613000000
O     0.913000000     3.608000000    -6.420000000
H     1.196000000     4.096000000    -7.193000000
H     0.967000000     2.689000000    -6.682000000
O     2.873000000     4.734000000    -2.893000000
H     2.992000000     3.838000000    -3.207000000
H     2.766000000     5.255000000    -3.690000000
O     3.747000000    -5.280000000    -2.523000000
H     3.672000000    -4.342000000    -2.700000000
H     2.989000000    -5.482000000    -1.975000000
O    -1.120000000    -4.784000000    -1.492000000
H    -0.324000000    -5.179000000    -1.848000000
H    -1.150000000    -3.912000000    -1.886000000
O     4.030000000    -3.508000000     0.109000000
H     3.244000000    -3.936000000     0.448000000
H     3.862000000    -3.404000000    -0.827000000
O     2.838000000    -4.475000000     6.498000000
H     2.772000000    -4.232000000     5.575000000
H     2.933000000    -5.427000000     6.489000000
O     0.883000000     1.148000000     4.384000000
H     1.169000000     1.609000000     3.595000000
H     0.568000000     0.302000000     4.066000000
O     2.730000000    -6.682000000     4.058000000
H     2.576000000    -5.873000000     3.570000000
H     3.444000000    -6.468000000     4.659000000
O    -0.211000000     4.410000000    -4.185000000
H     0.357000000     5.175000000    -4.091000000
H     0.015000000     4.048000000    -5.042000000
O     2.298000000    -0.269000000    -4.772000000
H     2.039000000     0.580000000    -4.414000000
H     2.321000000    -0.132000000    -5.719000000
O    -3.932000000     1.624000000    -2.318000000
H    -3.396000000     2.334000000    -2.669000000
H    -4.515000000     2.051000000    -1.690000000
O    -4.902000000    -1.981000000     4.335000000
H    -4.140000000    -1.465000000     4.599000000
H    -4.791000000    -2.105000000     3.392000000
O     4.788000000     1.602000000    -3.987000000
H     5.170000000     1.022000000    -4.645000000
H     3.866000000     1.349000000    -3.951000000
O    -3.917000000    -0.894000000    -2.988000000
H    -3.774000000     0.048000000    -2.896000000
H    -4.775000000    -0.967000000    -3.406000000
O    -3.596000000    -3.752000000     5.857000000
H    -4.095000000    -3.049000000     5.439000000
H    -2.682000000    -3.550000000     5.655000000
O    -2.871000000     2.648000000     2.375000000
H    -3.570000000     2.060000000     2.089000000
H    -3.260000000     3.153000000     3.089000000
O     2.530000000    -3.586000000     3.844000000
H     1.665000000    -3.404000000     3.477000000
H     2.997000000    -2.753000000     3.779000000
O     5.114000000    -0.957000000     0.354000000
H     4.393000000    -0.413000000     0.038000000
H     4.915000000    -1.834000000     0.025000000
O    -3.364000000    -0.362000000     0.018000000
H    -3.321000000    -0.460000000    -0.934000000
H    -2.519000000     0.017000000     0.258000000
O    -3.469000000    -6.407000000     0.531000000
H    -3.031000000    -5.743000000     1.062000000
H    -3.886000000    -6.987000000     1.168000000
O    -0.968000000     4.564000000     3.212000000
H    -1.431000000     5.235000000     2.711000000
H    -1.520000000     3.785000000     3.138000000
O     2.891000000     0.682000000     0.553000000
H     2.617000000     1.452000000     1.050000000
H     2.073000000     0.288000000     0.249000000
O    -1.815000000    -4.053000000     1.236000000
H    -0.918000000    -3.933000000     1.549000000
H    -1.715000000    -4.377000000     0.341000000
O    -2.652000000    -0.675000000     4.711000000
H    -2.613000000     0.213000000     5.066000000
H    -1.793000000    -0.811000000     4.312000000
O    -1.950000000    -2.637000000    -2.832000000
H    -2.688000000    -2.054000000    -3.008000000
H    -1.312000000    -2.428000000    -3.514000000
O     0.911000000    -1.815000000     6.834000000
H     1.056000000    -0.898000000     7.069000000
H     1.605000000    -2.292000000     7.290000000
