158
-3051.34722
C     0.871000000    -1.099000000    -0.467000000
H     1.642000000    -1.819000000    -0.727000000
C     1.087000000     0.256000000    -0.716000000
H     1.942000000     0.668000000    -1.247000000
C     0.215000000     1.189000000    -0.193000000
H     0.435000000     2.246000000    -0.391000000
C    -0.909000000     0.838000000     0.495000000
H    -1.672000000     1.549000000     0.804000000
C    -1.107000000    -0.520000000     0.787000000
H    -1.961000000    -0.840000000     1.378000000
C    -0.211000000    -1.528000000     0.323000000
C    -0.456000000    -3.030000000     0.607000000
O     0.060000000    -3.929000000    -0.082000000
O    -1.407000000    -3.305000000     1.294000000
O     4.117000000     0.508000000     0.886000000
H     4.250000000     0.083000000     0.039000000
H     3.798000000     1.383000000     0.667000000
O    -1.211000000    -3.437000000     3.969000000
H    -1.593000000    -3.203000000     3.124000000
H    -1.735000000    -4.177000000     4.273000000
O     6.368000000    -2.690000000    -0.778000000
H     6.931000000    -2.190000000    -0.188000000
H     5.581000000    -2.871000000    -0.263000000
O    -3.608000000    -4.005000000    -2.057000000
H    -4.130000000    -4.684000000    -2.484000000
H    -4.096000000    -3.195000000    -2.210000000
O    -1.966000000     4.471000000    -3.295000000
H    -2.202000000     4.266000000    -2.390000000
H    -1.652000000     3.641000000    -3.654000000
O     2.160000000    -4.045000000    -4.504000000
H     1.948000000    -4.670000000    -3.810000000
H     2.492000000    -3.276000000    -4.040000000
O    -3.393000000    -6.934000000    -0.584000000
H    -2.976000000    -6.595000000     0.208000000
H    -3.970000000    -6.226000000    -0.872000000
O     4.980000000     1.986000000    -2.097000000
H     4.833000000     1.074000000    -1.845000000
H     4.481000000     2.494000000    -1.457000000
O     2.082000000     2.321000000    -5.553000000
H     2.976000000     2.509000000    -5.269000000
H     1.561000000     2.371000000    -4.752000000
O     2.048000000     5.094000000     1.607000000
H     2.323000000     5.860000000     2.110000000
H     1.679000000     5.456000000     0.801000000
O     1.849000000     2.713000000     2.929000000
H     1.861000000     3.647000000     2.718000000
H     2.691000000     2.554000000     3.357000000
O    -6.143000000     1.005000000     0.214000000
H    -5.738000000     0.698000000     1.025000000
H    -6.338000000     1.928000000     0.377000000
O     1.083000000    -5.532000000     2.973000000
H     0.217000000    -5.128000000     2.920000000
H     0.934000000    -6.448000000     2.736000000
O    -1.278000000     4.956000000     0.408000000
H    -0.484000000     5.343000000     0.038000000
H    -1.012000000     4.641000000     1.271000000
O     1.214000000     3.059000000    -2.802000000
H     1.730000000     3.836000000    -3.017000000
H     1.387000000     2.907000000    -1.872000000
O     1.295000000    -6.195000000    -2.932000000
H     1.794000000    -6.992000000    -3.112000000
H     0.386000000    -6.490000000    -2.873000000
O    -2.255000000    -1.079000000     6.220000000
H    -2.884000000    -0.517000000     6.672000000
H    -2.636000000    -1.216000000     5.353000000
O    -3.292000000     3.236000000    -1.081000000
H    -2.969000000     3.767000000    -0.352000000
H    -3.188000000     2.332000000    -0.783000000
O    -1.411000000     7.035000000    -4.132000000
H    -1.419000000     6.111000000    -3.882000000
H    -1.742000000     7.495000000    -3.361000000
O    -5.500000000     0.902000000     3.125000000
H    -6.276000000     0.622000000     3.611000000
H    -5.723000000     1.773000000     2.799000000
O    -1.403000000    -7.182000000    -2.752000000
H    -2.062000000    -7.148000000    -2.059000000
H    -1.645000000    -6.473000000    -3.348000000
O    -1.290000000     2.080000000    -4.502000000
H    -0.776000000     1.422000000    -4.035000000
H    -0.866000000     2.154000000    -5.357000000
O    -6.731000000    -3.552000000     0.840000000
H    -6.961000000    -4.260000000     0.238000000
H    -5.894000000    -3.222000000     0.512000000
O    -0.277000000    -1.414000000    -4.715000000
H     0.089000000    -2.229000000    -4.370000000
H    -0.428000000    -0.873000000    -3.940000000
O    -0.959000000    -3.747000000    -2.482000000
H    -0.434000000    -3.687000000    -1.684000000
H    -1.864000000    -3.787000000    -2.172000000
O     2.993000000    -3.465000000     3.312000000
H     2.434000000    -2.775000000     3.669000000
H     2.417000000    -4.226000000     3.238000000
O    -3.477000000    -1.022000000     3.735000000
H    -3.945000000    -0.203000000     3.572000000
H    -4.164000000    -1.689000000     3.761000000
O    -3.677000000    -0.050000000    -1.147000000
H    -4.537000000     0.162000000    -1.511000000
H    -3.780000000    -0.931000000    -0.787000000
O     4.838000000     2.556000000    -4.594000000
H     4.872000000     2.465000000    -3.642000000
H     5.568000000     2.025000000    -4.912000000
O    -2.229000000    -4.988000000    -4.496000000
H    -1.838000000    -4.500000000    -3.771000000
H    -2.769000000    -4.345000000    -4.954000000
O     0.377000000     0.618000000     3.606000000
H     0.915000000     1.408000000     3.556000000
H     0.019000000     0.515000000     2.724000000
O     2.601000000     5.421000000    -2.585000000
H     2.866000000     6.175000000    -3.112000000
H     3.210000000     5.419000000    -1.847000000
O     1.013000000    -1.956000000     4.535000000
H     0.279000000    -2.519000000     4.289000000
H     0.829000000    -1.121000000     4.103000000
O    -2.175000000    -5.868000000     1.822000000
H    -1.979000000    -4.951000000     2.017000000
H    -1.501000000    -6.128000000     1.193000000
O     4.504000000    -0.713000000    -1.505000000
H     3.811000000    -0.979000000    -2.109000000
H     5.180000000    -1.383000000    -1.606000000
O    -6.322000000     3.334000000     2.050000000
H    -6.832000000     4.091000000     2.337000000
H    -5.416000000     3.643000000     2.046000000
O    -3.808000000    -2.730000000     0.334000000
H    -3.832000000    -3.462000000    -0.282000000
H    -3.025000000    -2.886000000     0.862000000
O    -3.664000000     4.462000000     1.768000000
H    -2.755000000     4.203000000     1.618000000
H    -3.623000000     5.060000000     2.514000000
O     3.364000000     3.090000000    -0.065000000
H     2.584000000     3.267000000     0.460000000
H     3.753000000     3.952000000    -0.215000000
O     2.505000000    -4.517000000    -1.175000000
H     2.177000000    -5.123000000    -1.840000000
H     1.738000000    -4.308000000    -0.643000000
O    -0.027000000    -6.799000000     0.110000000
H     0.076000000    -5.871000000    -0.102000000
H     0.486000000    -7.254000000    -0.558000000
O     4.496000000     5.526000000    -0.774000000
H     4.488000000     5.818000000     0.138000000
H     5.404000000     5.643000000    -1.054000000
O     4.207000000    -3.798000000     0.709000000
H     3.562000000    -3.719000000     1.412000000
H     3.688000000    -4.002000000    -0.070000000
O    -3.200000000    -6.338000000     4.457000000
H    -2.917000000    -6.211000000     3.551000000
H    -2.396000000    -6.262000000     4.971000000
O     0.912000000     6.241000000    -0.544000000
H     1.243000000     5.990000000    -1.407000000
H     0.659000000     7.159000000    -0.643000000
O     3.049000000    -1.452000000    -3.719000000
H     3.681000000    -1.289000000    -4.419000000
H     2.227000000    -1.092000000    -4.050000000
O    -1.244000000    -0.206000000    -2.425000000
H    -0.816000000     0.259000000    -1.707000000
H    -2.152000000    -0.304000000    -2.140000000
O    -0.650000000     3.808000000     2.732000000
H    -0.654000000     4.141000000     3.629000000
H    -0.082000000     3.037000000     2.765000000
