158
-3034.69685
C     0.819000000    -1.102000000     0.428000000
H     1.458000000    -1.954000000     0.647000000
C     0.992000000    -0.467000000    -0.769000000
H     1.746000000    -0.668000000    -1.526000000
C     0.092000000     0.572000000    -1.082000000
H     0.113000000     1.044000000    -2.091000000
C    -0.869000000     0.969000000    -0.148000000
H    -1.557000000     1.752000000    -0.459000000
C    -1.013000000     0.333000000     1.108000000
H    -1.821000000     0.560000000     1.800000000
C    -0.206000000    -0.790000000     1.319000000
C    -0.299000000    -1.666000000     2.579000000
O     0.565000000    -2.464000000     2.835000000
O    -1.160000000    -1.455000000     3.396000000
O    -0.059000000    -1.802000000     8.229000000
H     0.118000000    -1.581000000     7.315000000
H     0.627000000    -1.352000000     8.722000000
O     1.681000000    -5.777000000    -0.919000000
H     2.285000000    -5.246000000    -0.401000000
H     0.811000000    -5.495000000    -0.637000000
O     0.597000000    -5.840000000     4.861000000
H     1.355000000    -5.756000000     5.440000000
H     0.269000000    -6.725000000     5.022000000
O     1.338000000    -2.106000000    -5.995000000
H     1.325000000    -2.946000000    -5.534000000
H     1.392000000    -2.342000000    -6.921000000
O     7.105000000    -1.968000000    -1.363000000
H     7.238000000    -1.171000000    -1.876000000
H     6.229000000    -2.266000000    -1.606000000
O     1.542000000     2.021000000     1.811000000
H     2.176000000     1.375000000     2.122000000
H     0.840000000     1.500000000     1.422000000
O     1.515000000    -7.387000000     1.898000000
H     1.534000000    -6.454000000     1.684000000
H     0.826000000    -7.747000000     1.339000000
O    -1.013000000    -3.903000000    -1.502000000
H    -1.387000000    -4.427000000    -0.794000000
H    -1.488000000    -3.072000000    -1.462000000
O    -2.937000000    -2.292000000     7.679000000
H    -2.077000000    -1.922000000     7.481000000
H    -2.854000000    -3.221000000     7.463000000
O     3.137000000     3.681000000     0.389000000
H     2.374000000     3.185000000     0.685000000
H     3.308000000     3.353000000    -0.494000000
O    -0.955000000     2.652000000     4.812000000
H    -1.022000000     1.709000000     4.966000000
H    -1.695000000     2.854000000     4.239000000
O    -4.743000000     1.558000000     2.207000000
H    -4.498000000     2.043000000     1.420000000
H    -4.402000000     2.085000000     2.930000000
O    -1.014000000    -0.115000000    -6.016000000
H    -1.101000000     0.189000000    -6.919000000
H    -0.255000000    -0.698000000    -6.031000000
O    -1.107000000    -4.578000000     2.949000000
H    -0.759000000    -5.290000000     3.487000000
H    -0.511000000    -3.846000000     3.107000000
O    -2.160000000    -5.040000000     0.651000000
H    -2.859000000    -5.651000000     0.884000000
H    -1.697000000    -4.880000000     1.473000000
O     1.782000000     2.893000000    -4.256000000
H     1.883000000     2.500000000    -5.124000000
H     0.888000000     3.235000000    -4.251000000
O     4.465000000    -0.477000000    -2.316000000
H     4.396000000    -1.425000000    -2.202000000
H     3.790000000    -0.263000000    -2.959000000
O     0.490000000     4.660000000     2.241000000
H     0.853000000     3.804000000     2.465000000
H     0.938000000     5.271000000     2.826000000
O     1.796000000     5.941000000    -1.376000000
H     2.279000000     5.297000000    -0.857000000
H     2.023000000     5.736000000    -2.283000000
O     3.888000000    -3.291000000    -2.007000000
H     4.299000000    -4.048000000    -1.590000000
H     2.999000000    -3.583000000    -2.210000000
O    -3.407000000     0.879000000    -2.394000000
H    -3.439000000     0.523000000    -3.282000000
H    -3.270000000     1.819000000    -2.518000000
O     5.713000000    -2.499000000     2.757000000
H     5.968000000    -3.418000000     2.834000000
H     4.930000000    -2.420000000     3.302000000
O    -3.180000000     3.897000000    -2.460000000
H    -2.517000000     4.500000000    -2.122000000
H    -3.717000000     4.434000000    -3.043000000
O     1.095000000    -3.395000000    -3.337000000
H     0.825000000    -2.524000000    -3.630000000
H     0.364000000    -3.704000000    -2.801000000
O     3.553000000    -3.966000000     6.039000000
H     2.994000000    -4.542000000     6.560000000
H     3.803000000    -3.265000000     6.641000000
O     2.388000000    -0.057000000    -4.040000000
H     1.980000000    -0.511000000    -4.777000000
H     2.326000000     0.871000000    -4.265000000
O     0.974000000    -1.721000000     5.551000000
H     0.683000000    -1.707000000     4.640000000
H     1.780000000    -1.205000000     5.553000000
O     3.794000000     0.140000000     3.011000000
H     4.275000000    -0.082000000     2.214000000
H     3.450000000    -0.697000000     3.324000000
O    -2.021000000     4.712000000     0.533000000
H    -1.434000000     5.054000000    -0.141000000
H    -1.435000000     4.356000000     1.202000000
O     5.855000000     1.224000000    -5.203000000
H     6.015000000     0.290000000    -5.335000000
H     5.658000000     1.304000000    -4.270000000
O     2.387000000     1.803000000    -6.681000000
H     3.239000000     1.559000000    -6.321000000
H     2.314000000     1.295000000    -7.489000000
O     2.456000000     5.575000000    -4.017000000
H     2.300000000     5.932000000    -4.892000000
H     2.026000000     4.720000000    -4.028000000
O    -3.558000000    -0.251000000    -4.734000000
H    -2.694000000    -0.244000000    -5.146000000
H    -4.131000000     0.176000000    -5.371000000
O     3.694000000     3.427000000    -2.405000000
H     4.529000000     3.507000000    -2.865000000
H     3.095000000     3.063000000    -3.057000000
O    -6.372000000     1.001000000    -0.007000000
H    -7.002000000     0.371000000     0.343000000
H    -5.950000000     1.373000000     0.767000000
O    -2.980000000    -3.305000000     4.524000000
H    -2.508000000    -3.903000000     3.946000000
H    -2.465000000    -2.498000000     4.507000000
O    -4.746000000    -1.065000000     2.217000000
H    -4.759000000    -0.116000000     2.093000000
H    -3.911000000    -1.345000000     1.843000000
O    -3.991000000     2.862000000     4.524000000
H    -3.732000000     2.349000000     5.289000000
H    -3.630000000     3.733000000     4.686000000
O    -0.913000000     6.030000000    -1.643000000
H    -1.288000000     6.908000000    -1.577000000
H     0.031000000     6.166000000    -1.571000000
O    -0.796000000    -4.326000000     7.017000000
H    -0.115000000    -3.716000000     7.299000000
H    -0.410000000    -4.786000000     6.271000000
O     6.121000000     1.668000000    -2.222000000
H     5.785000000     0.773000000    -2.262000000
H     6.359000000     1.794000000    -1.304000000
O     5.060000000    -0.395000000     0.475000000
H     4.901000000    -0.407000000    -0.469000000
H     5.524000000    -1.214000000     0.649000000
O    -4.643000000     3.654000000     0.342000000
H    -3.747000000     3.936000000     0.527000000
H    -4.634000000     3.424000000    -0.587000000
O     1.845000000    -4.771000000     1.946000000
H     2.283000000    -5.132000000     2.717000000
H     1.436000000    -3.965000000     2.259000000
O    -5.781000000    -3.121000000     4.267000000
H    -4.882000000    -3.340000000     4.515000000
H    -5.746000000    -2.193000000     4.036000000
O    -2.425000000    -1.517000000    -1.272000000
H    -1.788000000    -1.020000000    -0.759000000
H    -2.956000000    -0.849000000    -1.706000000
O    -1.498000000     0.179000000     5.793000000
H    -2.407000000     0.230000000     6.089000000
H    -1.502000000    -0.505000000     5.124000000
O     3.155000000    -2.282000000     3.787000000
H     2.256000000    -2.468000000     3.514000000
H     3.222000000    -2.662000000     4.663000000
