158
-3013.46146
C    -0.868000000    -0.533000000    -1.165000000
H    -1.426000000    -1.022000000    -1.959000000
C    -1.038000000    -0.814000000     0.196000000
H    -1.894000000    -1.444000000     0.422000000
C    -0.301000000    -0.096000000     1.170000000
H    -0.647000000    -0.115000000     2.250000000
C     0.734000000     0.664000000     0.783000000
H     1.274000000     1.290000000     1.489000000
C     1.074000000     0.762000000    -0.527000000
H     2.063000000     1.120000000    -0.802000000
C     0.243000000     0.246000000    -1.510000000
C     0.645000000     0.458000000    -2.913000000
O     1.802000000     0.705000000    -3.109000000
O    -0.140000000     0.210000000    -3.783000000
O     5.132000000     0.069000000     0.149000000
H     4.534000000    -0.302000000    -0.500000000
H     4.681000000    -0.050000000     0.985000000
O    -1.039000000     2.024000000    -5.324000000
H    -0.738000000     1.366000000    -4.698000000
H    -1.989000000     2.050000000    -5.206000000
O    -0.275000000     1.400000000     4.998000000
H     0.497000000     1.966000000     5.000000000
H    -0.772000000     1.676000000     4.227000000
O    -3.306000000     1.479000000    -4.031000000
H    -4.127000000     1.895000000    -4.296000000
H    -3.504000000     0.543000000    -4.023000000
O     2.116000000    -3.677000000    -4.690000000
H     3.031000000    -3.406000000    -4.612000000
H     1.650000000    -2.878000000    -4.937000000
O    -6.359000000    -2.148000000    -2.560000000
H    -5.465000000    -1.831000000    -2.434000000
H    -6.600000000    -2.528000000    -1.715000000
O    -3.861000000     1.129000000     4.118000000
H    -3.327000000     0.351000000     4.279000000
H    -3.423000000     1.826000000     4.607000000
O    -2.041000000     3.048000000    -2.080000000
H    -1.763000000     3.816000000    -2.580000000
H    -2.308000000     2.414000000    -2.744000000
O    -4.177000000    -2.198000000     1.499000000
H    -4.070000000    -1.283000000     1.238000000
H    -3.691000000    -2.694000000     0.840000000
O    -4.057000000     0.646000000     1.358000000
H    -3.205000000     0.984000000     1.083000000
H    -4.077000000     0.788000000     2.304000000
O    -6.579000000    -1.268000000     2.870000000
H    -5.797000000    -1.577000000     2.414000000
H    -6.382000000    -0.359000000     3.095000000
O    -0.917000000    -5.790000000     2.924000000
H    -0.285000000    -6.210000000     2.340000000
H    -1.312000000    -6.515000000     3.410000000
O    -3.729000000     4.360000000     2.300000000
H    -3.894000000     4.011000000     1.425000000
H    -2.858000000     4.034000000     2.529000000
O     0.075000000    -0.691000000     6.665000000
H    -0.018000000     0.090000000     6.120000000
H     0.955000000    -0.622000000     7.034000000
O     0.223000000     0.815000000    -7.248000000
H    -0.274000000     1.164000000    -6.509000000
H     0.548000000     1.590000000    -7.706000000
O     5.050000000    -2.617000000    -2.862000000
H     5.413000000    -3.289000000    -2.285000000
H     4.592000000    -2.018000000    -2.272000000
O    -4.987000000    -3.590000000     3.854000000
H    -4.589000000    -3.221000000     3.066000000
H    -4.336000000    -3.446000000     4.541000000
O    -2.547000000    -1.162000000    -4.944000000
H    -2.338000000    -1.986000000    -5.384000000
H    -1.713000000    -0.693000000    -4.906000000
O    -2.014000000    -1.000000000     4.658000000
H    -1.458000000    -1.746000000     4.436000000
H    -1.577000000    -0.588000000     5.403000000
O     2.297000000     4.338000000    -1.353000000
H     1.703000000     4.564000000    -2.068000000
H     1.759000000     3.828000000    -0.747000000
O     0.773000000    -1.435000000    -5.449000000
H     0.522000000    -0.923000000    -4.680000000
H     0.541000000    -0.880000000    -6.193000000
O     2.775000000     0.096000000     6.751000000
H     3.165000000    -0.528000000     7.362000000
H     2.880000000     0.947000000     7.177000000
O    -3.448000000    -2.995000000     6.274000000
H    -2.706000000    -2.458000000     5.995000000
H    -3.282000000    -3.171000000     7.200000000
O    -1.832000000     2.201000000     0.569000000
H    -1.648000000     2.810000000    -0.146000000
H    -1.647000000     1.337000000     0.201000000
O     2.778000000     5.069000000     1.426000000
H     3.016000000     5.978000000     1.244000000
H     2.692000000     5.029000000     2.378000000
O     5.619000000     0.718000000    -4.085000000
H     5.820000000     1.567000000    -4.478000000
H     5.562000000     0.895000000    -3.146000000
O     1.391000000     3.164000000    -4.147000000
H     0.607000000     2.908000000    -4.632000000
H     1.681000000     2.359000000    -3.718000000
O     1.446000000    -2.602000000    -0.264000000
H     0.816000000    -3.230000000    -0.618000000
H     0.906000000    -1.887000000     0.075000000
O     1.935000000    -1.804000000     3.603000000
H     1.649000000    -1.816000000     4.516000000
H     1.129000000    -1.918000000     3.098000000
O     0.921000000     5.797000000    -3.711000000
H     1.823000000     6.112000000    -3.772000000
H     0.954000000     4.906000000    -4.060000000
O    -3.806000000    -1.469000000    -2.456000000
H    -3.563000000    -2.291000000    -2.030000000
H    -3.268000000    -1.442000000    -3.247000000
O     0.423000000    -1.735000000    -8.635000000
H     1.260000000    -2.087000000    -8.333000000
H     0.322000000    -0.912000000    -8.156000000
O    -3.028000000     0.860000000    -8.035000000
H    -2.373000000     0.388000000    -7.520000000
H    -3.855000000     0.427000000    -7.825000000
O     3.607000000     2.561000000     2.459000000
H     3.109000000     3.183000000     1.929000000
H     4.411000000     2.412000000     1.961000000
O     3.275000000    -0.956000000    -1.384000000
H     2.666000000    -1.489000000    -0.873000000
H     2.718000000    -0.476000000    -1.997000000
O     1.991000000     3.008000000     4.800000000
H     2.224000000     3.932000000     4.711000000
H     2.545000000     2.559000000     4.161000000
O    -3.254000000    -3.566000000    -0.889000000
H    -4.005000000    -4.096000000    -1.158000000
H    -2.527000000    -4.187000000    -0.844000000
O    -0.231000000     5.327000000     2.718000000
H    -0.565000000     5.396000000     1.824000000
H     0.419000000     6.026000000     2.785000000
O    -0.871000000    -5.106000000    -0.292000000
H    -1.393000000    -5.901000000    -0.185000000
H     0.032000000    -5.419000000    -0.356000000
O     3.491000000    -0.669000000    -5.290000000
H     4.330000000    -0.265000000    -5.070000000
H     2.862000000    -0.252000000    -4.702000000
O    -0.345000000    -3.531000000     4.149000000
H    -0.724000000    -4.183000000     3.560000000
H     0.275000000    -4.024000000     4.686000000
O    -1.537000000     3.060000000     2.983000000
H    -0.968000000     3.830000000     2.972000000
H    -1.455000000     2.689000000     2.105000000
O     3.829000000    -0.409000000     2.645000000
H     4.231000000     0.121000000     3.333000000
H     3.023000000    -0.742000000     3.040000000
O     7.245000000     1.820000000    -0.865000000
H     6.437000000     1.395000000    -0.577000000
H     7.412000000     2.491000000    -0.204000000
O    -3.468000000     3.509000000     5.374000000
H    -3.325000000     4.160000000     6.060000000
H    -3.011000000     3.861000000     4.610000000
O    -5.268000000     0.941000000    -1.695000000
H    -5.379000000     0.735000000    -0.767000000
H    -4.716000000     0.236000000    -2.033000000
O     5.030000000     3.909000000    -0.964000000
H     4.079000000     3.807000000    -0.941000000
H     5.227000000     4.121000000    -1.876000000
O     3.725000000     2.274000000    -7.004000000
H     3.483000000     1.771000000    -6.226000000
H     2.914000000     2.708000000    -7.271000000
