158
-2994.45169
C    -0.255000000    -1.318000000    -0.589000000
H    -0.294000000    -2.299000000    -1.055000000
C     0.535000000    -0.360000000    -1.072000000
H     0.988000000    -0.601000000    -2.030000000
C     0.775000000     0.865000000    -0.456000000
H     1.402000000     1.547000000    -0.858000000
C     0.068000000     1.161000000     0.714000000
H     0.188000000     2.145000000     1.161000000
C    -0.773000000     0.166000000     1.262000000
H    -1.370000000     0.382000000     2.143000000
C    -0.976000000    -1.101000000     0.651000000
C    -1.982000000    -2.154000000     1.142000000
O    -2.285000000    -3.096000000     0.397000000
O    -2.646000000    -1.894000000     2.106000000
O    -1.747000000     3.625000000     4.776000000
H    -1.762000000     3.459000000     3.833000000
H    -0.835000000     3.845000000     4.966000000
O    -0.424000000     2.715000000    -2.753000000
H    -0.891000000     3.476000000    -2.410000000
H    -1.048000000     1.994000000    -2.669000000
O    -4.955000000    -0.678000000     2.977000000
H    -4.138000000    -1.071000000     2.669000000
H    -5.566000000    -0.796000000     2.250000000
O    -4.461000000    -6.097000000     1.174000000
H    -4.798000000    -5.216000000     1.014000000
H    -3.602000000    -6.106000000     0.752000000
O     5.783000000     1.656000000     0.519000000
H     5.290000000     2.102000000    -0.170000000
H     6.638000000     2.085000000     0.517000000
O     1.781000000     3.272000000     3.375000000
H     2.183000000     3.237000000     4.243000000
H     2.474000000     3.602000000     2.803000000
O    -5.629000000     0.885000000     5.224000000
H    -5.501000000     0.240000000     4.528000000
H    -4.749000000     1.045000000     5.567000000
O    -2.382000000     3.528000000     2.015000000
H    -2.385000000     2.697000000     1.541000000
H    -3.286000000     3.837000000     1.964000000
O    -0.066000000    -2.707000000    -4.129000000
H     0.027000000    -1.794000000    -4.399000000
H    -0.693000000    -2.680000000    -3.407000000
O     1.046000000    -4.381000000    -1.982000000
H     0.881000000    -5.309000000    -2.148000000
H     0.778000000    -3.942000000    -2.790000000
O     6.497000000     5.408000000    -0.369000000
H     7.208000000     4.768000000    -0.337000000
H     5.736000000     4.907000000    -0.661000000
O    -4.709000000    -5.198000000    -2.677000000
H    -4.180000000    -4.781000000    -3.356000000
H    -5.224000000    -5.856000000    -3.144000000
O     2.570000000     2.125000000    -3.067000000
H     3.051000000     2.266000000    -3.882000000
H     1.818000000     2.715000000    -3.127000000
O    -0.563000000    -5.238000000     0.133000000
H    -0.078000000    -4.693000000    -0.486000000
H    -1.382000000    -4.765000000     0.279000000
O     3.601000000    -2.764000000    -5.309000000
H     3.762000000    -1.938000000    -5.766000000
H     3.495000000    -2.514000000    -4.392000000
O     7.134000000     2.422000000    -3.959000000
H     6.212000000     2.274000000    -4.167000000
H     7.121000000     2.840000000    -3.098000000
O    -0.244000000    -4.492000000     3.981000000
H     0.416000000    -4.488000000     4.674000000
H     0.211000000    -4.145000000     3.214000000
O    -2.163000000    -3.420000000    -2.066000000
H    -2.254000000    -3.413000000    -1.114000000
H    -2.528000000    -4.263000000    -2.336000000
O     1.651000000     6.741000000     0.476000000
H     0.824000000     6.468000000     0.078000000
H     1.842000000     6.060000000     1.120000000
O     2.568000000     3.175000000    -5.764000000
H     2.806000000     4.100000000    -5.716000000
H     1.629000000     3.178000000    -5.950000000
O     3.883000000     4.557000000     1.968000000
H     4.650000000     4.325000000     2.492000000
H     4.161000000     4.415000000     1.063000000
O     3.996000000     3.634000000    -1.141000000
H     3.586000000     3.007000000    -1.737000000
H     3.743000000     4.491000000    -1.484000000
O     4.688000000    -1.427000000     0.509000000
H     4.497000000    -2.325000000     0.238000000
H     3.966000000    -0.910000000     0.153000000
O    -2.222000000    -0.461000000    -6.282000000
H    -2.628000000    -0.687000000    -5.446000000
H    -1.286000000    -0.602000000    -6.139000000
O    -1.058000000    -3.695000000    -6.429000000
H    -0.612000000    -3.116000000    -7.047000000
H    -0.746000000    -3.413000000    -5.569000000
O     3.157000000    -3.790000000    -0.224000000
H     2.462000000    -3.977000000    -0.856000000
H     3.356000000    -4.639000000     0.170000000
O    -2.359000000     1.056000000    -2.259000000
H    -2.713000000     1.009000000    -1.371000000
H    -2.172000000     0.146000000    -2.490000000
O     4.965000000     1.994000000    -5.362000000
H     4.065000000     2.306000000    -5.454000000
H     5.493000000     2.649000000    -5.819000000
O     1.454000000    -2.646000000     5.232000000
H     0.879000000    -2.075000000     4.722000000
H     2.319000000    -2.528000000     4.839000000
O     3.787000000    -0.644000000    -3.245000000
H     4.718000000    -0.584000000    -3.031000000
H     3.434000000     0.218000000    -3.022000000
O    -2.825000000    -1.306000000     7.447000000
H    -3.604000000    -1.761000000     7.767000000
H    -2.778000000    -1.534000000     6.518000000
O     0.182000000     1.129000000     4.190000000
H     0.387000000     1.209000000     5.122000000
H     0.545000000     1.922000000     3.796000000
O     0.292000000    -7.161000000     1.864000000
H     0.255000000    -6.338000000     1.376000000
H     1.222000000    -7.285000000     2.055000000
O    -0.751000000     2.626000000    -5.940000000
H    -1.123000000     3.420000000    -5.558000000
H    -1.054000000     1.920000000    -5.368000000
O    -5.598000000    -3.564000000     3.900000000
H    -5.738000000    -3.405000000     2.966000000
H    -4.649000000    -3.651000000     3.989000000
O    -0.403000000     6.034000000    -1.206000000
H    -1.214000000     5.611000000    -1.488000000
H    -0.076000000     6.473000000    -1.992000000
O     3.952000000     5.872000000    -2.725000000
H     3.694000000     6.039000000    -3.632000000
H     4.062000000     6.742000000    -2.343000000
O    -1.920000000    -0.901000000     4.587000000
H    -2.165000000    -1.377000000     3.794000000
H    -1.094000000    -0.473000000     4.364000000
O     0.090000000     5.007000000     2.157000000
H     0.696000000     4.385000000     2.561000000
H    -0.353000000     4.501000000     1.476000000
O    -6.219000000    -0.884000000     0.464000000
H    -6.199000000    -0.230000000    -0.235000000
H    -7.137000000    -1.152000000     0.514000000
O    -4.941000000    -3.461000000     0.739000000
H    -5.379000000    -2.653000000     0.473000000
H    -4.009000000    -3.242000000     0.733000000
O    -3.797000000     1.245000000    -0.038000000
H    -4.562000000     1.287000000    -0.613000000
H    -4.139000000     0.909000000     0.791000000
O    -2.971000000    -1.375000000    -3.387000000
H    -2.550000000    -2.100000000    -2.926000000
H    -3.905000000    -1.490000000    -3.212000000
O     4.566000000     1.086000000     2.943000000
H     4.504000000     1.969000000     3.307000000
H     4.940000000     1.212000000     2.071000000
O     0.795000000    -0.196000000    -5.051000000
H     1.119000000    -0.329000000    -4.160000000
H     1.440000000     0.383000000    -5.457000000
O    -2.958000000    -3.700000000     4.077000000
H    -2.080000000    -4.079000000     4.130000000
H    -2.963000000    -3.223000000     3.247000000
O    -3.103000000     1.686000000     5.920000000
H    -2.662000000     0.944000000     5.506000000
H    -2.543000000     2.437000000     5.722000000
O     1.480000000    -3.273000000     2.432000000
H     2.088000000    -3.970000000     2.186000000
H     1.352000000    -2.771000000     1.627000000
