158
-3038.25163
C     0.008000000    -1.458000000     0.006000000
H    -0.109000000    -2.533000000    -0.105000000
C     0.139000000    -0.666000000    -1.157000000
H     0.155000000    -1.040000000    -2.177000000
C     0.133000000     0.715000000    -1.009000000
H     0.212000000     1.459000000    -1.822000000
C    -0.068000000     1.272000000     0.274000000
H    -0.268000000     2.340000000     0.311000000
C    -0.012000000     0.462000000     1.461000000
H     0.113000000     0.910000000     2.444000000
C     0.000000000    -0.898000000     1.273000000
C    -0.157000000    -1.790000000     2.435000000
O    -0.480000000    -2.963000000     2.309000000
O    -0.054000000    -1.319000000     3.574000000
O    -4.985000000     4.092000000     0.508000000
H    -5.894000000     3.877000000     0.714000000
H    -4.479000000     3.365000000     0.871000000
O    -2.897000000    -2.729000000     4.174000000
H    -2.252000000    -2.746000000     4.881000000
H    -2.381000000    -2.573000000     3.383000000
O     0.748000000    -1.695000000    -4.508000000
H     0.668000000    -1.952000000    -5.426000000
H     0.428000000    -2.452000000    -4.018000000
O    -2.621000000     2.716000000    -6.247000000
H    -2.675000000     2.865000000    -5.303000000
H    -2.335000000     3.556000000    -6.605000000
O    -1.742000000     0.361000000     4.691000000
H    -1.208000000    -0.330000000     4.299000000
H    -1.108000000     1.013000000     4.990000000
O    -3.537000000    -5.290000000     3.798000000
H    -3.141000000    -4.437000000     3.975000000
H    -3.806000000    -5.243000000     2.880000000
O    -2.000000000    -4.574000000     6.164000000
H    -1.121000000    -4.197000000     6.129000000
H    -1.949000000    -5.353000000     5.611000000
O     0.419000000     1.765000000     5.813000000
H     1.179000000     2.099000000     6.290000000
H     0.663000000     0.873000000     5.567000000
O    -3.576000000    -0.587000000     6.297000000
H    -3.458000000    -0.311000000     5.389000000
H    -2.725000000    -0.941000000     6.553000000
O    -4.373000000     4.408000000    -1.948000000
H    -3.863000000     5.147000000    -1.616000000
H    -4.854000000     4.087000000    -1.185000000
O    -0.719000000    -7.731000000     4.070000000
H     0.228000000    -7.825000000     4.178000000
H    -0.823000000    -6.920000000     3.571000000
O    -2.536000000     2.828000000    -3.379000000
H    -2.922000000     3.329000000    -2.661000000
H    -2.509000000     1.927000000    -3.055000000
O     3.530000000    -3.190000000    -2.717000000
H     3.566000000    -3.933000000    -3.319000000
H     3.141000000    -3.548000000    -1.918000000
O     0.436000000    -3.723000000     5.473000000
H     1.190000000    -3.507000000     6.021000000
H     0.611000000    -3.284000000     4.641000000
O     4.305000000    -1.463000000     1.965000000
H     3.786000000    -1.121000000     1.237000000
H     3.786000000    -2.191000000     2.306000000
O    -1.211000000     3.359000000     2.813000000
H    -0.259000000     3.266000000     2.796000000
H    -1.374000000     4.230000000     2.450000000
O     1.993000000    -0.587000000     4.992000000
H     2.298000000    -1.396000000     5.405000000
H     1.329000000    -0.873000000     4.365000000
O    -4.394000000     0.916000000    -4.731000000
H    -5.119000000     1.540000000    -4.771000000
H    -3.784000000     1.215000000    -5.404000000
O    -3.318000000    -3.246000000    -4.074000000
H    -3.703000000    -2.895000000    -3.271000000
H    -2.412000000    -3.446000000    -3.837000000
O    -1.164000000     6.216000000     1.790000000
H    -0.808000000     5.833000000     0.988000000
H    -1.447000000     7.093000000     1.531000000
O     3.576000000     2.915000000     0.742000000
H     3.522000000     1.961000000     0.691000000
H     2.695000000     3.191000000     0.997000000
O    -0.740000000     7.002000000    -3.985000000
H    -0.424000000     6.191000000    -3.587000000
H    -0.823000000     6.796000000    -4.916000000
O     0.083000000     4.192000000    -3.177000000
H     0.699000000     4.539000000    -2.532000000
H    -0.711000000     4.008000000    -2.675000000
O     3.090000000    -4.811000000    -0.361000000
H     3.974000000    -5.069000000    -0.103000000
H     2.646000000    -5.636000000    -0.555000000
O     0.324000000     0.879000000    -6.401000000
H    -0.162000000     0.330000000    -5.786000000
H    -0.338000000     1.455000000    -6.783000000
O    -2.315000000    -4.308000000    -0.328000000
H    -1.910000000    -3.881000000     0.427000000
H    -3.014000000    -4.845000000     0.047000000
O    -3.434000000     2.319000000     2.005000000
H    -3.368000000     1.508000000     2.509000000
H    -2.623000000     2.789000000     2.200000000
O    -1.140000000    -3.951000000    -2.822000000
H    -0.904000000    -4.874000000    -2.917000000
H    -1.565000000    -3.900000000    -1.966000000
O     3.178000000    -0.849000000    -3.920000000
H     2.224000000    -0.911000000    -3.954000000
H     3.459000000    -1.686000000    -3.551000000
O     2.458000000    -3.730000000     2.147000000
H     2.560000000    -3.826000000     1.200000000
H     1.512000000    -3.764000000     2.290000000
O    -1.596000000    -0.286000000    -4.699000000
H    -2.338000000    -0.120000000    -4.118000000
H    -0.923000000    -0.657000000    -4.129000000
O     1.745000000     6.023000000    -2.252000000
H     2.054000000     6.790000000    -2.732000000
H     2.402000000     5.349000000    -2.426000000
O     4.824000000     1.053000000    -6.081000000
H     4.142000000     1.111000000    -6.750000000
H     4.346000000     0.924000000    -5.262000000
O     3.237000000     3.776000000    -2.586000000
H     2.604000000     3.463000000    -1.940000000
H     3.936000000     3.122000000    -2.573000000
O    -3.531000000    -1.141000000     0.286000000
H    -4.180000000    -0.627000000     0.766000000
H    -3.994000000    -1.942000000     0.041000000
O     1.426000000     4.200000000     1.517000000
H     1.391000000     4.132000000     2.472000000
H     0.723000000     4.811000000     1.295000000
O    -2.764000000     0.054000000    -1.978000000
H    -1.998000000    -0.030000000    -1.410000000
H    -3.477000000    -0.347000000    -1.481000000
O    -4.971000000    -0.788000000     3.563000000
H    -5.728000000    -1.256000000     3.914000000
H    -4.215000000    -1.266000000     3.904000000
O     3.170000000     0.279000000    -0.016000000
H     2.221000000     0.227000000     0.102000000
H     3.300000000     0.175000000    -0.959000000
O     4.451000000     1.272000000    -2.403000000
H     4.005000000     0.674000000    -3.003000000
H     5.381000000     1.077000000    -2.518000000
O    -0.848000000    -5.517000000     2.340000000
H    -0.364000000    -5.856000000     1.587000000
H    -0.754000000    -4.566000000     2.277000000
O    -0.197000000     5.628000000    -0.478000000
H    -0.967000000     5.973000000    -0.931000000
H     0.539000000     6.109000000    -0.856000000
O    -1.860000000    -2.519000000    -6.418000000
H    -1.645000000    -1.870000000    -5.748000000
H    -2.419000000    -3.153000000    -5.967000000
O     0.991000000     4.489000000     4.154000000
H     1.651000000     4.161000000     4.765000000
H     0.742000000     5.343000000     4.506000000
O     3.869000000     0.934000000     3.701000000
H     3.124000000     0.610000000     4.207000000
H     4.171000000     0.174000000     3.205000000
O     0.986000000     3.921000000    -5.894000000
H     0.808000000     3.813000000    -4.960000000
H     1.671000000     3.279000000    -6.083000000
O     2.710000000    -2.975000000     6.756000000
H     3.624000000    -2.760000000     6.570000000
H     2.666000000    -3.026000000     7.711000000
O    -0.041000000    -6.335000000    -3.154000000
H     0.401000000    -6.912000000    -3.777000000
H     0.541000000    -6.312000000    -2.394000000
