158
-3009.32168
C     0.311000000    -1.424000000     0.223000000
H     0.641000000    -2.453000000     0.342000000
C     1.030000000    -0.495000000    -0.624000000
H     1.860000000    -0.821000000    -1.246000000
C     0.593000000     0.868000000    -0.765000000
H     1.159000000     1.616000000    -1.268000000
C    -0.472000000     1.226000000     0.050000000
H    -0.764000000     2.273000000     0.071000000
C    -1.173000000     0.319000000     0.906000000
H    -1.890000000     0.691000000     1.634000000
C    -0.796000000    -0.993000000     0.934000000
C    -1.357000000    -2.039000000     1.896000000
O    -1.164000000    -3.197000000     1.665000000
O    -1.835000000    -1.657000000     2.950000000
O    -1.433000000     2.884000000     5.765000000
H    -1.767000000     3.729000000     5.467000000
H    -0.605000000     2.775000000     5.296000000
O    -4.599000000    -1.297000000     2.248000000
H    -3.676000000    -1.488000000     2.415000000
H    -4.584000000    -0.589000000     1.603000000
O     1.174000000     7.815000000    -2.169000000
H     1.262000000     8.348000000    -1.379000000
H     0.694000000     7.038000000    -1.882000000
O     4.004000000     2.405000000    -0.894000000
H     3.783000000     2.955000000    -1.645000000
H     3.942000000     1.510000000    -1.225000000
O     1.685000000     3.759000000     2.312000000
H     2.290000000     3.867000000     3.045000000
H     2.031000000     4.334000000     1.629000000
O    -1.633000000     4.514000000    -5.469000000
H    -1.986000000     5.400000000    -5.549000000
H    -2.395000000     3.943000000    -5.570000000
O    -3.172000000     2.468000000    -1.145000000
H    -3.034000000     1.527000000    -1.035000000
H    -4.099000000     2.550000000    -1.368000000
O    -0.750000000    -1.943000000    -3.724000000
H    -1.322000000    -1.352000000    -3.234000000
H    -0.993000000    -2.818000000    -3.420000000
O     0.561000000    -6.151000000    -1.252000000
H     0.013000000    -6.883000000    -1.537000000
H     1.186000000    -6.028000000    -1.966000000
O    -0.479000000     1.622000000    -4.146000000
H    -0.242000000     2.194000000    -3.416000000
H    -1.125000000     1.019000000    -3.777000000
O     0.716000000    -4.955000000     1.207000000
H     0.410000000    -5.330000000     0.381000000
H     0.141000000    -4.205000000     1.357000000
O     1.025000000     4.754000000    -4.821000000
H     1.343000000     4.932000000    -5.706000000
H     0.072000000     4.724000000    -4.911000000
O     4.278000000    -0.170000000     0.827000000
H     3.801000000    -0.923000000     1.174000000
H     3.713000000     0.579000000     1.018000000
O    -0.508000000    -4.260000000     4.329000000
H     0.401000000    -3.993000000     4.466000000
H    -0.723000000    -3.936000000     3.455000000
O    -1.546000000    -4.296000000    -2.344000000
H    -1.566000000    -5.118000000    -2.833000000
H    -1.551000000    -4.564000000    -1.425000000
O     2.867000000    -4.914000000    -2.862000000
H     3.374000000    -4.434000000    -3.518000000
H     3.202000000    -4.597000000    -2.023000000
O    -6.270000000     2.613000000     1.218000000
H    -6.231000000     2.142000000     2.050000000
H    -6.077000000     3.522000000     1.447000000
O     1.881000000     2.088000000    -5.714000000
H     1.794000000     2.812000000    -6.335000000
H     1.151000000     2.205000000    -5.106000000
O     6.540000000     3.596000000    -2.506000000
H     7.402000000     3.411000000    -2.878000000
H     5.973000000     3.725000000    -3.266000000
O     4.787000000     4.218000000     1.317000000
H     4.578000000     3.696000000     2.092000000
H     4.793000000     3.587000000     0.597000000
O     3.168000000     3.871000000    -3.203000000
H     2.418000000     4.087000000    -3.756000000
H     3.695000000     4.670000000    -3.191000000
O     5.669000000    -1.176000000    -1.530000000
H     5.203000000    -0.992000000    -0.714000000
H     5.200000000    -0.670000000    -2.193000000
O    -0.687000000    -7.128000000     2.886000000
H    -0.045000000    -6.971000000     3.578000000
H    -0.593000000    -6.379000000     2.298000000
O    -1.801000000    -0.742000000    -6.032000000
H    -1.675000000    -1.044000000    -5.132000000
H    -0.913000000    -0.610000000    -6.366000000
O     5.159000000     3.192000000    -5.332000000
H     4.300000000     2.782000000    -5.226000000
H     5.022000000     3.865000000    -5.999000000
O     3.888000000    -4.617000000    -0.210000000
H     3.013000000    -4.743000000     0.156000000
H     4.474000000    -5.036000000     0.420000000
O    -2.631000000     0.003000000    -3.096000000
H    -3.366000000     0.091000000    -3.702000000
H    -3.037000000    -0.227000000    -2.260000000
O     5.049000000     0.652000000    -3.689000000
H     4.687000000     0.243000000    -4.475000000
H     4.693000000     1.541000000    -3.696000000
O     2.338000000    -4.009000000     4.651000000
H     2.544000000    -3.554000000     3.834000000
H     3.187000000    -4.301000000     4.983000000
O     4.394000000    -2.596000000    -5.124000000
H     3.458000000    -2.502000000    -4.946000000
H     4.567000000    -1.972000000    -5.830000000
O    -1.968000000    -1.193000000     7.531000000
H    -1.916000000    -2.149000000     7.562000000
H    -1.729000000    -0.969000000     6.632000000
O     0.378000000     1.124000000     4.395000000
H     1.330000000     1.152000000     4.492000000
H     0.213000000     0.330000000     3.885000000
O    -5.874000000    -4.669000000     2.948000000
H    -6.135000000    -4.138000000     2.195000000
H    -5.062000000    -4.264000000     3.255000000
O    -6.513000000    -1.371000000     3.925000000
H    -7.140000000    -1.469000000     3.209000000
H    -5.656000000    -1.464000000     3.508000000
O     0.996000000     5.149000000    -1.663000000
H     0.415000000     4.744000000    -2.307000000
H     1.808000000     4.646000000    -1.723000000
O    -1.985000000     0.044000000     5.011000000
H    -1.914000000    -0.591000000     4.299000000
H    -1.414000000     0.766000000     4.747000000
O     2.771000000    -0.650000000     4.107000000
H     2.703000000    -1.552000000     3.793000000
H     3.057000000    -0.151000000     3.341000000
O    -1.328000000     3.959000000    -2.680000000
H    -2.054000000     3.551000000    -2.208000000
H    -1.724000000     4.296000000    -3.484000000
O    -0.934000000     3.878000000     2.582000000
H     0.022000000     3.891000000     2.620000000
H    -1.172000000     2.985000000     2.830000000
O    -3.093000000     4.643000000     0.662000000
H    -2.393000000     4.315000000     1.226000000
H    -3.322000000     3.898000000     0.106000000
O    -2.861000000    -5.149000000     0.159000000
H    -3.800000000    -5.009000000     0.283000000
H    -2.449000000    -4.390000000     0.571000000
O     4.069000000     0.432000000    -6.467000000
H     4.631000000     1.088000000    -6.878000000
H     3.236000000     0.883000000    -6.328000000
O    -4.110000000    -0.954000000    -0.976000000
H    -4.996000000    -0.613000000    -1.096000000
H    -4.217000000    -1.905000000    -0.977000000
O     2.154000000     1.221000000     1.937000000
H     1.735000000     2.046000000     2.183000000
H     1.637000000     0.901000000     1.197000000
O     1.928000000    -1.636000000    -4.615000000
H     1.026000000    -1.887000000    -4.417000000
H     1.876000000    -0.705000000    -4.829000000
O    -3.448000000    -3.717000000     3.742000000
H    -2.777000000    -3.875000000     4.407000000
H    -2.991000000    -3.242000000     3.049000000
O    -3.679000000     1.528000000     6.467000000
H    -3.502000000     1.021000000     5.674000000
H    -2.866000000     2.004000000     6.634000000
O     3.526000000    -2.694000000     2.397000000
H     4.478000000    -2.766000000     2.470000000
H     3.293000000    -3.301000000     1.695000000
