158
-3047.86133
C     0.212000000    -1.247000000    -0.822000000
H     0.526000000    -2.101000000    -1.417000000
C     0.686000000    -0.023000000    -1.151000000
H     1.341000000     0.079000000    -2.013000000
C     0.341000000     1.102000000    -0.401000000
H     0.799000000     2.056000000    -0.634000000
C    -0.493000000     1.011000000     0.727000000
H    -0.714000000     1.870000000     1.355000000
C    -0.970000000    -0.272000000     1.118000000
H    -1.621000000    -0.314000000     1.987000000
C    -0.644000000    -1.374000000     0.330000000
C    -1.126000000    -2.740000000     0.838000000
O    -0.426000000    -3.697000000     0.584000000
O    -2.032000000    -2.866000000     1.617000000
O    -2.209000000    -0.259000000     7.108000000
H    -2.500000000     0.082000000     6.262000000
H    -1.268000000    -0.394000000     7.002000000
O     1.049000000    -1.365000000    -7.060000000
H     0.812000000    -1.005000000    -7.914000000
H     0.940000000    -0.634000000    -6.453000000
O    -3.567000000    -1.317000000     3.213000000
H    -3.132000000    -2.013000000     2.721000000
H    -2.867000000    -0.911000000     3.725000000
O     2.306000000     0.665000000     4.862000000
H     2.327000000     0.059000000     4.122000000
H     3.194000000     1.019000000     4.907000000
O     4.611000000     2.502000000     4.479000000
H     4.620000000     2.903000000     3.610000000
H     4.155000000     3.136000000     5.032000000
O    -0.629000000     2.194000000     4.284000000
H    -0.385000000     2.914000000     3.703000000
H     0.194000000     1.736000000     4.455000000
O    -5.729000000    -2.139000000     4.958000000
H    -4.915000000    -2.112000000     4.456000000
H    -6.416000000    -2.222000000     4.297000000
O     0.933000000     1.639000000    -6.223000000
H     1.477000000     1.808000000    -6.992000000
H     0.855000000     2.491000000    -5.793000000
O     1.399000000    -3.347000000    -5.376000000
H     1.344000000    -2.991000000    -6.263000000
H     0.668000000    -2.942000000    -4.909000000
O     3.616000000    -1.185000000    -5.046000000
H     4.143000000    -1.321000000    -4.258000000
H     2.898000000    -1.813000000    -4.964000000
O    -0.216000000    -6.484000000     1.943000000
H    -0.415000000    -7.394000000     1.722000000
H     0.084000000    -6.099000000     1.120000000
O     2.737000000     1.573000000    -4.074000000
H     2.014000000     1.167000000    -4.553000000
H     3.453000000     1.611000000    -4.707000000
O     2.855000000    -5.213000000     1.588000000
H     3.044000000    -4.447000000     1.046000000
H     2.167000000    -4.919000000     2.185000000
O     3.788000000     4.971000000     3.468000000
H     3.183000000     4.926000000     4.208000000
H     3.224000000     5.104000000     2.706000000
O     0.839000000    -3.824000000     2.739000000
H     0.255000000    -3.710000000     3.489000000
H     0.252000000    -3.976000000     1.998000000
O    -1.162000000    -1.452000000    -4.691000000
H    -1.391000000    -1.853000000    -3.852000000
H    -1.897000000    -1.664000000    -5.267000000
O    -0.410000000    -7.396000000    -2.947000000
H    -0.085000000    -6.755000000    -2.315000000
H     0.238000000    -8.101000000    -2.929000000
O     1.035000000     6.382000000     1.978000000
H     1.447000000     7.202000000     2.251000000
H     1.448000000     6.175000000     1.140000000
O     0.340000000    -0.088000000     6.565000000
H     0.889000000     0.083000000     5.800000000
H     0.962000000    -0.222000000     7.281000000
O     3.506000000     1.337000000     0.066000000
H     2.555000000     1.313000000    -0.038000000
H     3.826000000     0.616000000    -0.475000000
O     5.446000000     2.956000000     1.056000000
H     6.055000000     2.265000000     0.795000000
H     4.581000000     2.551000000     0.985000000
O     2.087000000     3.975000000    -2.781000000
H     2.585000000     4.082000000    -1.970000000
H     2.302000000     3.091000000    -3.079000000
O     3.194000000    -4.605000000    -2.018000000
H     3.910000000    -4.377000000    -2.612000000
H     3.093000000    -3.834000000    -1.459000000
O    -1.700000000    -3.251000000    -2.498000000
H    -2.486000000    -3.778000000    -2.354000000
H    -0.975000000    -3.842000000    -2.293000000
O    -1.724000000     5.097000000     0.415000000
H    -1.583000000     5.584000000     1.227000000
H    -2.485000000     4.545000000     0.596000000
O    -1.872000000    -5.021000000     3.559000000
H    -2.019000000    -4.210000000     3.072000000
H    -1.319000000    -5.549000000     2.983000000
O    -3.594000000     2.692000000    -0.465000000
H    -3.566000000     2.551000000     0.481000000
H    -3.545000000     1.813000000    -0.840000000
O     4.246000000     0.046000000    -2.382000000
H     5.179000000     0.217000000    -2.506000000
H     3.811000000     0.624000000    -3.009000000
O    -1.199000000    -1.361000000     4.546000000
H    -1.041000000    -2.055000000     5.186000000
H    -0.628000000    -0.644000000     4.824000000
O     0.511000000    -5.290000000    -1.144000000
H     1.424000000    -5.054000000    -1.310000000
H     0.205000000    -4.633000000    -0.519000000
O    -1.241000000     1.052000000    -4.005000000
H    -1.412000000     0.111000000    -4.043000000
H    -0.932000000     1.275000000    -4.883000000
O     3.635000000    -2.249000000    -0.528000000
H     4.108000000    -1.966000000     0.255000000
H     3.621000000    -1.476000000    -1.092000000
O     4.536000000     6.302000000    -2.445000000
H     4.553000000     6.541000000    -3.371000000
H     4.850000000     5.398000000    -2.424000000
O     3.939000000     4.543000000    -5.382000000
H     4.051000000     4.205000000    -6.270000000
H     3.029000000     4.344000000    -5.163000000
O     2.312000000     6.664000000    -0.609000000
H     3.056000000     6.449000000    -1.172000000
H     1.545000000     6.534000000    -1.165000000
O    -4.904000000    -5.286000000     2.712000000
H    -4.080000000    -5.171000000     3.185000000
H    -4.692000000    -5.066000000     1.805000000
O    -0.006000000     5.611000000    -1.722000000
H    -0.497000000     5.618000000    -0.900000000
H    -0.017000000     4.695000000    -1.999000000
O     1.180000000     6.810000000    -3.840000000
H     0.776000000     7.294000000    -3.120000000
H     1.434000000     5.972000000    -3.453000000
O    -3.055000000     2.042000000     5.250000000
H    -2.176000000     2.053000000     4.871000000
H    -3.131000000     2.882000000     5.703000000
O    -0.463000000     4.554000000     3.110000000
H    -0.792000000     5.100000000     3.824000000
H     0.135000000     5.125000000     2.628000000
O    -2.547000000     6.069000000    -3.284000000
H    -1.901000000     5.430000000    -2.983000000
H    -2.515000000     6.767000000    -2.629000000
O    -3.303000000     3.436000000     2.298000000
H    -2.459000000     3.242000000     2.708000000
H    -3.948000000     3.017000000     2.868000000
O    -5.096000000     0.305000000     1.570000000
H    -4.849000000    -0.285000000     2.282000000
H    -4.700000000    -0.082000000     0.789000000
O    -1.718000000     3.471000000    -2.541000000
H    -1.290000000     2.691000000    -2.893000000
H    -2.091000000     3.184000000    -1.707000000
O    -4.183000000    -4.232000000     0.286000000
H    -4.047000000    -4.749000000    -0.507000000
H    -3.307000000    -4.124000000     0.656000000
O    -3.897000000    -0.860000000    -0.444000000
H    -3.504000000    -1.634000000    -0.041000000
H    -4.478000000    -1.211000000    -1.120000000
O     1.912000000    -1.333000000     2.509000000
H     1.534000000    -2.211000000     2.552000000
H     1.233000000    -0.800000000     2.094000000
O     5.423000000     3.718000000    -1.475000000
H     6.311000000     3.623000000    -1.820000000
H     5.510000000     3.540000000    -0.539000000
