158
-3030.94924
C     0.474000000    -0.664000000    -1.255000000
H     0.863000000    -1.081000000    -2.180000000
C     0.841000000     0.623000000    -0.936000000
H     1.501000000     1.229000000    -1.551000000
C     0.337000000     1.143000000     0.249000000
H     0.682000000     2.102000000     0.423000000
C    -0.427000000     0.356000000     1.118000000
H    -0.673000000     0.854000000     2.052000000
C    -0.768000000    -0.958000000     0.832000000
H    -1.511000000    -1.457000000     1.449000000
C    -0.385000000    -1.443000000    -0.420000000
C    -0.996000000    -2.785000000    -0.791000000
O    -0.505000000    -3.377000000    -1.713000000
O    -2.051000000    -3.148000000    -0.309000000
O     0.405000000     4.537000000     1.303000000
H     1.013000000     3.943000000     1.742000000
H     0.450000000     5.346000000     1.812000000
O    -1.129000000    -6.339000000    -5.382000000
H    -0.932000000    -7.271000000    -5.476000000
H    -0.799000000    -6.111000000    -4.513000000
O     1.238000000     6.047000000     3.347000000
H     1.404000000     5.839000000     4.266000000
H     2.044000000     6.466000000     3.047000000
O    -3.944000000    -2.315000000    -1.941000000
H    -3.232000000    -2.898000000    -1.677000000
H    -3.898000000    -1.586000000    -1.322000000
O    -0.485000000    -7.468000000     0.962000000
H    -1.255000000    -7.941000000     0.647000000
H    -0.784000000    -6.565000000     1.066000000
O     3.764000000     3.043000000     5.035000000
H     3.772000000     3.893000000     5.474000000
H     4.585000000     3.019000000     4.543000000
O     4.444000000    -0.729000000    -1.199000000
H     4.281000000     0.214000000    -1.234000000
H     5.326000000    -0.833000000    -1.557000000
O    -5.758000000    -0.688000000     2.659000000
H    -6.487000000    -1.053000000     3.160000000
H    -4.994000000    -0.816000000     3.220000000
O    -3.348000000     1.718000000     1.735000000
H    -3.991000000     2.416000000     1.607000000
H    -2.603000000     2.152000000     2.149000000
O     2.065000000     4.606000000    -1.190000000
H     2.451000000     3.734000000    -1.273000000
H     1.171000000     4.446000000    -0.891000000
O    -1.515000000     3.293000000     3.096000000
H    -2.214000000     3.883000000     3.378000000
H    -0.984000000     3.820000000     2.499000000
O     2.378000000    -5.812000000    -3.780000000
H     2.948000000    -5.076000000    -3.557000000
H     2.895000000    -6.339000000    -4.390000000
O     2.939000000     2.948000000    -4.398000000
H     2.348000000     2.547000000    -5.036000000
H     3.088000000     3.832000000    -4.733000000
O     1.796000000    -4.420000000    -1.032000000
H     2.316000000    -3.967000000    -1.696000000
H     0.933000000    -4.009000000    -1.083000000
O     6.263000000     2.258000000     0.268000000
H     5.987000000     3.174000000     0.292000000
H     5.465000000     1.772000000     0.063000000
O    -6.460000000    -3.616000000    -1.999000000
H    -5.585000000    -3.333000000    -2.263000000
H    -6.518000000    -3.384000000    -1.072000000
O     1.848000000    -7.147000000    -0.649000000
H     1.080000000    -7.353000000    -0.116000000
H     1.755000000    -6.216000000    -0.854000000
O     0.326000000    -3.366000000    -4.257000000
H     1.176000000    -2.941000000    -4.374000000
H     0.191000000    -3.376000000    -3.309000000
O    -0.277000000     1.486000000     4.791000000
H    -0.630000000     2.103000000     4.149000000
H    -0.453000000     1.895000000     5.638000000
O    -3.153000000     3.509000000    -1.126000000
H    -3.519000000     2.661000000    -1.378000000
H    -3.671000000     3.778000000    -0.368000000
O     2.072000000     7.387000000    -1.311000000
H     1.150000000     7.417000000    -1.058000000
H     2.330000000     6.476000000    -1.168000000
O    -3.825000000     0.914000000    -2.181000000
H    -4.561000000     0.397000000    -2.507000000
H    -3.420000000     0.360000000    -1.514000000
O     3.985000000     2.480000000    -1.800000000
H     3.432000000     2.332000000    -2.567000000
H     4.738000000     2.965000000    -2.137000000
O     2.552000000    -1.341000000    -5.563000000
H     3.214000000    -1.744000000    -6.124000000
H     1.791000000    -1.228000000    -6.134000000
O    -0.725000000     7.026000000    -1.543000000
H    -1.642000000     7.119000000    -1.283000000
H    -0.591000000     6.081000000    -1.616000000
O    -3.315000000    -1.948000000     4.226000000
H    -3.600000000    -1.710000000     5.108000000
H    -2.438000000    -1.572000000     4.148000000
O     3.438000000    -2.824000000    -3.075000000
H     3.249000000    -1.975000000    -3.475000000
H     4.079000000    -2.628000000    -2.391000000
O    -2.167000000    -1.692000000    -4.493000000
H    -2.238000000    -1.385000000    -3.589000000
H    -1.381000000    -2.239000000    -4.499000000
O     2.364000000     2.912000000     1.973000000
H     2.824000000     3.291000000     2.723000000
H     2.707000000     2.021000000     1.907000000
O     4.181000000     0.427000000    -4.133000000
H     3.562000000    -0.148000000    -4.582000000
H     4.124000000     1.257000000    -4.606000000
O    -0.556000000    -1.341000000     3.932000000
H     0.277000000    -1.813000000     3.946000000
H    -0.310000000    -0.418000000     3.992000000
O    -4.024000000    -3.721000000     1.737000000
H    -4.004000000    -2.867000000     2.168000000
H    -3.269000000    -3.710000000     1.149000000
O    -6.709000000    -3.156000000     0.716000000
H    -7.269000000    -3.449000000     1.435000000
H    -5.819000000    -3.223000000     1.064000000
O     0.614000000     5.492000000    -3.790000000
H     0.714000000     4.834000000    -4.478000000
H     0.873000000     5.040000000    -2.987000000
O    -3.976000000    -0.573000000     0.399000000
H    -4.684000000    -0.772000000     1.011000000
H    -3.505000000     0.154000000     0.806000000
O     1.141000000    -3.390000000     2.498000000
H     0.545000000    -3.204000000     1.773000000
H     1.860000000    -2.769000000     2.383000000
O     0.272000000     3.205000000    -5.254000000
H    -0.365000000     2.701000000    -4.747000000
H     0.370000000     2.714000000    -6.070000000
O     4.621000000     4.634000000     0.480000000
H     4.177000000     3.899000000     0.903000000
H     4.328000000     4.600000000    -0.430000000
O    -0.281000000    -5.844000000    -2.717000000
H     0.591000000    -5.725000000    -3.092000000
H    -0.463000000    -5.019000000    -2.266000000
O     2.259000000     0.900000000     4.734000000
H     2.911000000     1.595000000     4.643000000
H     1.429000000     1.363000000     4.847000000
O    -1.937000000     1.666000000    -4.203000000
H    -2.320000000     1.369000000    -3.378000000
H    -2.598000000     1.459000000    -4.863000000
O    -0.346000000    -4.203000000    -6.675000000
H     0.006000000    -3.804000000    -5.879000000
H    -0.582000000    -5.093000000    -6.413000000
O     4.150000000     0.927000000     2.052000000
H     3.881000000     0.028000000     1.862000000
H     5.095000000     0.870000000     2.191000000
O    -2.695000000    -5.734000000     0.494000000
H    -3.362000000    -5.532000000     1.151000000
H    -2.400000000    -4.879000000     0.182000000
O    -3.849000000     1.113000000     4.386000000
H    -3.375000000     1.896000000     4.666000000
H    -3.700000000     1.069000000     3.441000000
O     3.605000000    -1.877000000     1.393000000
H     3.781000000    -2.816000000     1.331000000
H     3.562000000    -1.581000000     0.484000000
O    -0.576000000     4.336000000    -1.187000000
H    -0.370000000     4.213000000    -0.260000000
H    -1.467000000     3.998000000    -1.280000000
O    -4.979000000    -7.316000000    -1.091000000
H    -5.893000000    -7.308000000    -0.808000000
H    -4.754000000    -6.393000000    -1.205000000
