158
-3032.37884
C     0.616000000    -0.785000000    -1.121000000
H     0.835000000    -1.307000000    -2.050000000
C     0.380000000     0.625000000    -1.107000000
H     0.465000000     1.208000000    -2.020000000
C    -0.279000000     1.245000000    -0.037000000
H    -0.463000000     2.309000000    -0.100000000
C    -0.410000000     0.486000000     1.143000000
H    -0.800000000     0.940000000     2.050000000
C    -0.121000000    -0.908000000     1.155000000
H    -0.423000000    -1.494000000     2.019000000
C     0.413000000    -1.554000000     0.083000000
C     0.440000000    -3.060000000     0.115000000
O     1.159000000    -3.746000000    -0.662000000
O    -0.425000000    -3.643000000     0.739000000
O     0.121000000     4.233000000     2.020000000
H     1.037000000     4.019000000     2.198000000
H    -0.243000000     4.462000000     2.875000000
O     4.629000000    -5.182000000    -0.737000000
H     4.243000000    -4.545000000    -1.337000000
H     4.130000000    -5.080000000     0.074000000
O     2.428000000     3.695000000     3.414000000
H     2.648000000     3.358000000     4.282000000
H     3.135000000     3.383000000     2.849000000
O    -2.947000000    -2.796000000    -0.031000000
H    -2.045000000    -3.039000000     0.177000000
H    -3.243000000    -2.298000000     0.731000000
O     1.796000000    -8.107000000     0.254000000
H     2.545000000    -8.189000000    -0.336000000
H     1.032000000    -8.231000000    -0.310000000
O     4.775000000    -2.135000000     0.345000000
H     4.185000000    -2.102000000    -0.408000000
H     5.652000000    -2.145000000    -0.039000000
O    -2.814000000    -1.734000000     4.662000000
H    -3.390000000    -1.308000000     5.296000000
H    -2.846000000    -2.662000000     4.895000000
O    -1.359000000    -0.119000000     7.105000000
H    -1.690000000     0.484000000     6.440000000
H    -2.145000000    -0.462000000     7.530000000
O    -3.655000000     1.258000000     3.483000000
H    -3.391000000     2.132000000     3.193000000
H    -3.125000000     1.096000000     4.263000000
O    -1.096000000    -8.317000000     1.734000000
H    -1.039000000    -7.361000000     1.732000000
H    -1.998000000    -8.503000000     1.473000000
O     2.065000000     3.673000000    -2.190000000
H     2.087000000     3.025000000    -1.486000000
H     2.866000000     3.512000000    -2.689000000
O    -2.703000000     3.559000000     2.218000000
H    -2.860000000     4.408000000     2.630000000
H    -1.786000000     3.592000000     1.943000000
O     1.068000000    -4.646000000    -4.559000000
H     1.966000000    -4.345000000    -4.691000000
H     0.882000000    -5.189000000    -5.325000000
O     3.385000000    -3.074000000    -2.045000000
H     3.142000000    -2.418000000    -2.699000000
H     2.551000000    -3.363000000    -1.675000000
O    -4.865000000    -4.544000000    -0.893000000
H    -4.117000000    -4.038000000    -0.577000000
H    -5.532000000    -4.434000000    -0.215000000
O     2.303000000    -5.568000000     0.726000000
H     1.955000000    -6.451000000     0.607000000
H     1.737000000    -5.013000000     0.189000000
O    -0.640000000    -2.271000000    -4.551000000
H    -0.084000000    -3.044000000    -4.461000000
H    -1.395000000    -2.452000000    -3.990000000
O     1.042000000     1.045000000     3.940000000
H     1.857000000     0.570000000     3.779000000
H     1.075000000     1.789000000     3.340000000
O    -3.519000000     5.443000000    -2.271000000
H    -3.047000000     5.683000000    -3.068000000
H    -3.441000000     4.490000000    -2.225000000
O     1.657000000     8.105000000    -2.071000000
H     1.896000000     7.319000000    -1.580000000
H     1.920000000     7.916000000    -2.971000000
O    -4.095000000     0.805000000    -1.674000000
H    -3.265000000     0.407000000    -1.415000000
H    -4.040000000     1.706000000    -1.354000000
O     1.968000000     2.010000000    -5.445000000
H     2.824000000     1.587000000    -5.373000000
H     1.340000000     1.315000000    -5.244000000
O     1.198000000     5.625000000    -0.172000000
H     0.770000000     5.275000000     0.609000000
H     1.413000000     4.852000000    -0.694000000
O    -4.542000000     3.024000000    -0.221000000
H    -5.398000000     2.863000000     0.176000000
H    -3.949000000     3.127000000     0.523000000
O    -0.322000000     4.870000000     5.005000000
H     0.529000000     4.598000000     5.349000000
H    -0.130000000     5.647000000     4.480000000
O     4.188000000    -1.525000000    -4.396000000
H     4.249000000    -0.734000000    -4.932000000
H     5.057000000    -1.616000000    -4.004000000
O    -2.798000000    -2.963000000    -3.105000000
H    -3.449000000    -2.269000000    -3.209000000
H    -2.752000000    -3.109000000    -2.161000000
O     3.370000000     2.522000000    -0.140000000
H     3.441000000     2.274000000     0.781000000
H     4.184000000     2.209000000    -0.536000000
O     4.180000000     3.365000000    -4.041000000
H     3.545000000     3.172000000    -4.732000000
H     5.030000000     3.180000000    -4.439000000
O    -0.001000000    -2.503000000     4.554000000
H    -0.281000000    -3.190000000     3.949000000
H    -0.683000000    -1.835000000     4.491000000
O    -4.210000000    -5.004000000     2.475000000
H    -4.212000000    -5.808000000     2.994000000
H    -4.067000000    -4.306000000     3.114000000
O     0.129000000     3.592000000    -4.249000000
H     0.599000000     3.627000000    -3.416000000
H     0.652000000     3.005000000    -4.795000000
O    -3.828000000    -1.142000000     2.078000000
H    -3.603000000    -1.330000000     2.989000000
H    -3.477000000    -0.265000000     1.921000000
O     0.464000000    -4.914000000     2.983000000
H     0.043000000    -4.498000000     2.230000000
H     1.292000000    -5.250000000     2.640000000
O     4.592000000     5.330000000    -0.524000000
H     4.284000000     4.437000000    -0.683000000
H     3.847000000     5.885000000    -0.753000000
O    -0.136000000    -5.585000000    -2.203000000
H     0.186000000    -5.347000000    -3.073000000
H     0.162000000    -4.875000000    -1.635000000
O     2.432000000    -2.297000000     5.733000000
H     2.759000000    -3.175000000     5.536000000
H     1.594000000    -2.244000000     5.275000000
O    -0.539000000    -5.879000000     5.553000000
H     0.308000000    -5.854000000     5.998000000
H    -0.405000000    -5.367000000     4.756000000
O    -0.551000000     7.432000000     0.747000000
H     0.075000000     6.943000000     0.213000000
H    -1.409000000     7.162000000     0.419000000
O    -3.154000000     1.310000000    -4.299000000
H    -3.259000000     0.810000000    -3.489000000
H    -4.004000000     1.244000000    -4.733000000
O     3.132000000    -0.503000000     3.596000000
H     4.031000000    -0.422000000     3.277000000
H     3.218000000    -0.928000000     4.450000000
O    -0.354000000     0.348000000    -4.954000000
H    -1.131000000     0.749000000    -4.565000000
H    -0.521000000    -0.594000000    -4.906000000
O    -1.877000000    -5.659000000     1.057000000
H    -2.651000000    -5.268000000     1.463000000
H    -1.398000000    -4.917000000     0.690000000
O    -1.716000000     2.406000000     5.712000000
H    -1.984000000     2.504000000     6.626000000
H    -1.291000000     3.236000000     5.496000000
O    -0.053000000    -8.160000000    -1.629000000
H    -0.330000000    -7.274000000    -1.860000000
H    -0.339000000    -8.701000000    -2.365000000
O     3.202000000    -3.240000000     2.544000000
H     2.815000000    -3.697000000     1.797000000
H     2.953000000    -2.324000000     2.419000000
O    -2.512000000     4.021000000    -4.699000000
H    -2.976000000     3.197000000    -4.550000000
H    -1.587000000     3.775000000    -4.717000000
O    -3.186000000    -6.938000000    -1.017000000
H    -3.793000000    -6.202000000    -1.096000000
H    -2.652000000    -6.726000000    -0.251000000
