158
-3055.45429
C     0.148000000    -0.856000000    -1.146000000
H     0.392000000    -1.421000000    -2.042000000
C     0.901000000     0.281000000    -0.903000000
H     1.640000000     0.626000000    -1.622000000
C     0.605000000     1.084000000     0.200000000
H     1.139000000     2.069000000     0.365000000
C    -0.364000000     0.580000000     1.084000000
H    -0.480000000     1.155000000     1.999000000
C    -1.093000000    -0.582000000     0.903000000
H    -1.736000000    -0.996000000     1.675000000
C    -0.879000000    -1.288000000    -0.278000000
C    -1.616000000    -2.555000000    -0.637000000
O    -1.473000000    -3.084000000    -1.712000000
O    -2.363000000    -3.033000000     0.233000000
O    -0.879000000     4.750000000     1.259000000
H    -0.269000000     4.260000000     1.810000000
H    -0.919000000     5.619000000     1.659000000
O     4.658000000     6.376000000     2.674000000
H     5.588000000     6.153000000     2.720000000
H     4.276000000     5.695000000     2.121000000
O     5.004000000     0.238000000    -2.147000000
H     5.271000000    -0.300000000    -2.892000000
H     5.091000000     1.139000000    -2.459000000
O    -4.830000000    -0.886000000    -0.172000000
H    -4.360000000    -0.566000000    -0.942000000
H    -5.482000000    -0.209000000     0.009000000
O     2.829000000    -5.290000000     1.167000000
H     2.053000000    -4.808000000     0.885000000
H     3.399000000    -4.624000000     1.550000000
O     3.657000000     0.616000000     4.017000000
H     2.788000000     1.017000000     4.006000000
H     3.751000000     0.226000000     3.148000000
O    -1.307000000     2.707000000     6.151000000
H    -2.012000000     2.744000000     6.796000000
H    -1.128000000     1.772000000     6.046000000
O     0.149000000     4.155000000     3.761000000
H     0.673000000     4.746000000     4.302000000
H     0.340000000     3.282000000     4.105000000
O    -1.112000000    -7.924000000     0.725000000
H    -1.992000000    -7.949000000     0.350000000
H    -1.093000000    -7.115000000     1.237000000
O     2.489000000    -1.222000000     5.456000000
H     3.120000000    -0.669000000     4.994000000
H     2.819000000    -2.113000000     5.336000000
O    -5.356000000     3.227000000     3.495000000
H    -4.403000000     3.242000000     3.578000000
H    -5.675000000     3.188000000     4.396000000
O     2.512000000     4.004000000    -4.752000000
H     1.829000000     3.342000000    -4.858000000
H     3.072000000     3.897000000    -5.521000000
O    -3.720000000     4.801000000    -0.157000000
H    -4.235000000     5.428000000     0.350000000
H    -2.865000000     4.790000000     0.274000000
O    -1.170000000     0.018000000     4.238000000
H    -1.097000000    -0.932000000     4.140000000
H    -2.003000000     0.238000000     3.822000000
O     0.996000000    -4.274000000    -0.542000000
H     1.686000000    -4.576000000    -1.134000000
H     0.360000000    -3.846000000    -1.115000000
O     4.853000000    -1.811000000    -0.055000000
H     4.877000000    -0.989000000    -0.544000000
H     5.660000000    -2.263000000    -0.304000000
O     3.704000000     5.028000000    -1.732000000
H     2.942000000     4.496000000    -1.501000000
H     4.182000000     4.499000000    -2.370000000
O     3.524000000    -2.026000000    -2.834000000
H     3.662000000    -2.933000000    -3.108000000
H     3.376000000    -2.080000000    -1.890000000
O    -0.876000000    -5.027000000     1.324000000
H    -1.395000000    -4.247000000     1.127000000
H    -0.361000000    -5.178000000     0.531000000
O    -3.111000000    -4.233000000    -3.378000000
H    -2.413000000    -3.867000000    -2.835000000
H    -3.860000000    -3.656000000    -3.226000000
O     4.463000000     1.694000000     0.377000000
H     4.083000000     0.961000000     0.861000000
H     4.448000000     1.411000000    -0.537000000
O     2.656000000     6.483000000    -3.764000000
H     2.532000000     5.611000000    -4.139000000
H     3.070000000     6.323000000    -2.917000000
O     1.081000000     1.590000000     4.504000000
H     1.189000000     1.272000000     5.401000000
H     0.398000000     1.031000000     4.133000000
O     2.866000000    -5.138000000    -3.013000000
H     3.109000000    -5.953000000    -2.574000000
H     2.556000000    -5.414000000    -3.876000000
O    -1.663000000     1.687000000    -1.891000000
H    -1.280000000     1.463000000    -1.043000000
H    -2.404000000     1.088000000    -1.984000000
O     0.692000000    -2.937000000    -5.063000000
H    -0.262000000    -3.004000000    -5.113000000
H     1.002000000    -3.834000000    -5.187000000
O     0.659000000     5.511000000    -1.416000000
H    -0.018000000     5.064000000    -0.908000000
H     0.476000000     5.268000000    -2.324000000
O    -2.680000000     4.308000000     4.068000000
H    -2.225000000     3.988000000     4.847000000
H    -1.991000000     4.706000000     3.534000000
O    -4.310000000    -6.485000000     2.258000000
H    -4.057000000    -6.886000000     3.090000000
H    -4.185000000    -7.179000000     1.611000000
O    -5.003000000    -2.550000000    -2.744000000
H    -5.690000000    -1.954000000    -3.042000000
H    -4.999000000    -2.454000000    -1.792000000
O     1.735000000    -0.584000000    -4.333000000
H     2.404000000    -0.814000000    -3.687000000
H     1.384000000    -1.425000000    -4.624000000
O     5.693000000     3.259000000    -2.424000000
H     6.392000000     3.015000000    -3.030000000
H     6.151000000     3.568000000    -1.642000000
O    -2.444000000    -2.777000000     4.609000000
H    -3.079000000    -2.750000000     3.894000000
H    -2.916000000    -2.421000000     5.362000000
O     6.913000000     2.520000000     1.254000000
H     6.795000000     2.203000000     2.149000000
H     6.103000000     2.277000000     0.805000000
O     6.425000000     1.170000000     3.718000000
H     6.436000000     0.922000000     4.642000000
H     5.496000000     1.258000000     3.504000000
O     0.303000000     1.858000000    -4.231000000
H    -0.203000000     1.875000000    -3.419000000
H     0.710000000     0.991000000    -4.241000000
O    -4.168000000     0.041000000     3.473000000
H    -4.607000000     0.520000000     2.770000000
H    -3.892000000    -0.781000000     3.066000000
O    -4.086000000    -2.406000000     2.171000000
H    -3.618000000    -2.499000000     1.340000000
H    -5.006000000    -2.324000000     1.920000000
O    -3.411000000    -1.721000000    -5.994000000
H    -3.342000000    -0.792000000    -6.213000000
H    -3.200000000    -1.764000000    -5.062000000
O     3.699000000     4.378000000     0.856000000
H     3.883000000     4.841000000     0.039000000
H     3.599000000     3.462000000     0.596000000
O    -2.513000000    -6.482000000    -1.601000000
H    -2.377000000    -5.859000000    -2.315000000
H    -2.958000000    -5.974000000    -0.923000000
O     2.304000000     7.129000000     0.057000000
H     2.584000000     6.390000000     0.599000000
H     2.070000000     6.735000000    -0.783000000
O    -1.863000000    -1.048000000    -3.886000000
H    -1.593000000    -1.732000000    -3.272000000
H    -1.761000000    -0.233000000    -3.395000000
O     3.368000000    -0.449000000     1.525000000
H     4.007000000    -1.053000000     1.147000000
H     2.565000000    -0.607000000     1.028000000
O    -2.440000000    -4.374000000    -6.103000000
H    -2.673000000    -3.457000000    -6.246000000
H    -2.456000000    -4.479000000    -5.152000000
O    -3.961000000    -4.878000000    -0.049000000
H    -4.141000000    -4.965000000     0.887000000
H    -3.353000000    -4.141000000    -0.108000000
O     0.069000000    -3.633000000     3.897000000
H    -0.785000000    -3.421000000     4.274000000
H    -0.134000000    -4.009000000     3.040000000
O    -6.163000000    -5.833000000    -2.052000000
H    -5.965000000    -5.655000000    -2.971000000
H    -5.393000000    -5.523000000    -1.576000000
