158
-3042.63357
C     0.379000000    -0.932000000    -1.072000000
H     0.675000000    -1.487000000    -1.959000000
C     1.135000000     0.183000000    -0.762000000
H     2.021000000     0.418000000    -1.347000000
C     0.621000000     0.960000000     0.271000000
H     1.192000000     1.865000000     0.468000000
C    -0.512000000     0.640000000     1.036000000
H    -0.805000000     1.311000000     1.839000000
C    -1.264000000    -0.475000000     0.687000000
H    -2.111000000    -0.774000000     1.299000000
C    -0.785000000    -1.285000000    -0.385000000
C    -1.614000000    -2.536000000    -0.673000000
O    -1.370000000    -3.193000000    -1.734000000
O    -2.566000000    -2.816000000     0.024000000
O    -6.837000000    -1.330000000    -2.837000000
H    -6.185000000    -1.301000000    -2.137000000
H    -7.563000000    -0.797000000    -2.511000000
O     0.874000000     4.045000000     2.703000000
H     1.431000000     3.854000000     1.948000000
H     1.447000000     4.508000000     3.313000000
O    -3.797000000    -5.827000000    -4.498000000
H    -3.444000000    -4.946000000    -4.622000000
H    -3.062000000    -6.332000000    -4.151000000
O    -0.279000000     6.774000000     1.264000000
H    -0.772000000     6.414000000     2.001000000
H     0.635000000     6.738000000     1.546000000
O     0.487000000     1.514000000    -6.113000000
H     0.911000000     1.842000000    -5.320000000
H    -0.311000000     1.088000000    -5.800000000
O    -5.323000000    -1.563000000    -0.487000000
H    -4.471000000    -1.998000000    -0.476000000
H    -5.896000000    -2.146000000     0.011000000
O    -2.823000000    -7.358000000    -0.234000000
H    -2.823000000    -6.688000000    -0.918000000
H    -2.775000000    -6.864000000     0.585000000
O     2.513000000     3.274000000     5.113000000
H     2.551000000     4.185000000     4.822000000
H     3.409000000     2.952000000     5.009000000
O     5.321000000     0.542000000    -0.540000000
H     5.031000000     1.370000000    -0.924000000
H     5.839000000     0.126000000    -1.229000000
O    -4.769000000    -6.496000000     2.904000000
H    -4.633000000    -7.357000000     3.299000000
H    -3.896000000    -6.220000000     2.626000000
O     5.245000000     3.685000000     3.034000000
H     4.928000000     2.801000000     3.217000000
H     6.150000000     3.561000000     2.749000000
O    -5.048000000     0.852000000     0.716000000
H    -5.113000000     0.647000000     1.649000000
H    -4.981000000    -0.001000000     0.287000000
O    -3.151000000     2.775000000     0.068000000
H    -3.834000000     2.148000000     0.303000000
H    -2.709000000     2.969000000     0.895000000
O    -2.111000000     1.386000000    -2.230000000
H    -1.427000000     0.757000000    -2.000000000
H    -2.585000000     1.536000000    -1.412000000
O    -2.200000000     3.302000000     2.520000000
H    -2.523000000     4.202000000     2.480000000
H    -1.268000000     3.391000000     2.717000000
O     0.830000000    -5.068000000    -5.052000000
H     1.605000000    -5.322000000    -4.551000000
H     0.868000000    -5.610000000    -5.841000000
O     3.248000000     3.385000000    -3.995000000
H     3.401000000     4.254000000    -4.367000000
H     3.354000000     2.786000000    -4.734000000
O     0.680000000    -4.927000000    -0.954000000
H     1.462000000    -4.584000000    -1.387000000
H    -0.045000000    -4.441000000    -1.348000000
O     0.044000000    -4.041000000     1.540000000
H     0.861000000    -3.588000000     1.746000000
H     0.104000000    -4.232000000     0.604000000
O    -1.304000000    -3.705000000    -4.410000000
H    -0.549000000    -4.264000000    -4.593000000
H    -1.166000000    -3.402000000    -3.512000000
O    -0.100000000     2.087000000     4.568000000
H     0.727000000     2.511000000     4.340000000
H    -0.624000000     2.783000000     4.966000000
O     1.165000000     7.482000000    -1.387000000
H     1.314000000     6.732000000    -1.963000000
H     0.934000000     7.094000000    -0.543000000
O     4.319000000     3.046000000    -1.474000000
H     3.958000000     3.015000000    -2.360000000
H     4.876000000     3.824000000    -1.470000000
O     0.623000000    -0.063000000     5.975000000
H     0.491000000     0.688000000     5.396000000
H     1.036000000    -0.724000000     5.420000000
O     3.059000000    -2.339000000    -5.422000000
H     3.777000000    -2.557000000    -6.017000000
H     2.284000000    -2.309000000    -5.983000000
O    -4.240000000    -0.605000000     5.811000000
H    -3.684000000     0.045000000     5.381000000
H    -3.632000000    -1.286000000     6.102000000
O     2.669000000    -3.603000000    -2.651000000
H     2.468000000    -3.088000000    -3.433000000
H     3.279000000    -4.274000000    -2.956000000
O    -1.628000000    -0.194000000    -5.239000000
H    -2.364000000     0.090000000    -4.697000000
H    -1.986000000    -0.900000000    -5.778000000
O     4.029000000     1.055000000     3.553000000
H     4.466000000     0.345000000     4.023000000
H     3.903000000     0.713000000     2.667000000
O     4.390000000    -0.058000000    -4.497000000
H     3.783000000    -0.788000000    -4.612000000
H     4.426000000     0.363000000    -5.356000000
O    -1.716000000    -0.053000000     3.950000000
H    -1.221000000    -0.833000000     3.701000000
H    -1.053000000     0.628000000     4.058000000
O     1.045000000    -1.105000000     3.046000000
H     0.927000000    -0.537000000     2.284000000
H     1.803000000    -1.647000000     2.825000000
O     1.136000000    -6.610000000     1.685000000
H     0.833000000    -5.902000000     1.117000000
H     1.333000000    -7.330000000     1.086000000
O    -4.118000000    -2.346000000     2.278000000
H    -3.476000000    -2.687000000     2.901000000
H    -3.741000000    -2.535000000     1.418000000
O    -6.703000000    -3.031000000     1.577000000
H    -6.701000000    -3.941000000     1.280000000
H    -5.795000000    -2.857000000     1.825000000
O     0.771000000     4.780000000    -2.768000000
H     0.092000000     4.266000000    -3.206000000
H     1.550000000     4.225000000    -2.800000000
O    -0.689000000    -3.188000000     3.952000000
H    -0.631000000    -3.760000000     3.186000000
H    -0.026000000    -2.515000000     3.799000000
O     2.675000000    -3.185000000     2.131000000
H     3.076000000    -3.703000000     2.829000000
H     3.288000000    -3.254000000     1.399000000
O     3.332000000     3.845000000     1.086000000
H     3.976000000     3.720000000     1.783000000
H     3.693000000     3.370000000     0.338000000
O    -1.825000000     7.220000000    -0.828000000
H    -1.234000000     6.944000000    -0.128000000
H    -2.661000000     7.376000000    -0.389000000
O    -3.142000000    -5.078000000    -1.755000000
H    -3.920000000    -4.528000000    -1.657000000
H    -2.413000000    -4.458000000    -1.781000000
O    -3.895000000     0.102000000    -3.804000000
H    -3.297000000     0.691000000    -3.344000000
H    -4.727000000     0.195000000    -3.340000000
O    -2.429000000    -2.575000000    -6.406000000
H    -2.096000000    -3.094000000    -5.673000000
H    -2.887000000    -3.207000000    -6.959000000
O     3.459000000    -0.218000000     1.377000000
H     3.940000000    -0.068000000     0.563000000
H     2.568000000     0.073000000     1.185000000
O     0.596000000    -1.901000000    -6.745000000
H     0.082000000    -2.687000000    -6.933000000
H    -0.050000000    -1.253000000    -6.466000000
O    -2.470000000    -5.060000000     1.645000000
H    -1.671000000    -4.678000000     2.010000000
H    -2.747000000    -4.437000000     0.973000000
O    -4.794000000     1.570000000     3.608000000
H    -3.965000000     1.208000000     3.295000000
H    -4.621000000     1.813000000     4.517000000
O     4.048000000    -3.052000000    -0.261000000
H     4.419000000    -3.931000000    -0.195000000
H     3.402000000    -3.116000000    -0.964000000
