158
-3047.20792
C     1.015000000    -0.638000000    -0.880000000
H     1.841000000    -0.865000000    -1.549000000
C     1.230000000     0.506000000    -0.087000000
H     2.212000000     0.963000000     0.004000000
C     0.167000000     1.042000000     0.686000000
H     0.231000000     1.948000000     1.248000000
C    -1.077000000     0.346000000     0.715000000
H    -1.948000000     0.794000000     1.185000000
C    -1.212000000    -0.830000000    -0.014000000
H    -2.198000000    -1.288000000    -0.005000000
C    -0.202000000    -1.318000000    -0.817000000
C    -0.461000000    -2.543000000    -1.629000000
O     0.351000000    -3.058000000    -2.387000000
O    -1.639000000    -2.922000000    -1.590000000
O    -2.838000000    -1.082000000    -4.697000000
H    -3.370000000    -1.692000000    -4.188000000
H    -2.343000000    -1.639000000    -5.298000000
O     4.316000000     1.736000000     2.020000000
H     3.877000000     0.888000000     2.095000000
H     5.042000000     1.577000000     1.417000000
O    -4.345000000     0.596000000    -1.498000000
H    -3.520000000     0.944000000    -1.837000000
H    -4.788000000     1.355000000    -1.120000000
O    -1.528000000     6.548000000    -0.197000000
H    -1.828000000     5.870000000    -0.802000000
H    -1.371000000     6.084000000     0.625000000
O     6.394000000     2.100000000    -0.046000000
H     6.521000000     2.707000000    -0.775000000
H     6.195000000     1.262000000    -0.463000000
O    -1.397000000    -2.855000000    -6.420000000
H    -1.259000000    -3.785000000    -6.239000000
H    -0.610000000    -2.427000000    -6.083000000
O    -3.987000000    -3.225000000    -2.714000000
H    -3.044000000    -3.153000000    -2.563000000
H    -4.375000000    -2.595000000    -2.107000000
O     4.701000000    -3.264000000    -2.715000000
H     5.144000000    -2.722000000    -3.368000000
H     4.632000000    -2.701000000    -1.944000000
O     5.411000000    -1.046000000     2.643000000
H     6.251000000    -1.443000000     2.414000000
H     4.916000000    -1.043000000     1.824000000
O    -1.003000000     4.894000000     2.043000000
H    -1.861000000     5.081000000     2.425000000
H    -0.459000000     5.638000000     2.302000000
O     2.803000000    -6.797000000    -0.448000000
H     2.547000000    -7.126000000    -1.310000000
H     2.360000000    -5.952000000    -0.373000000
O    -1.443000000     0.893000000     3.894000000
H    -1.098000000     1.772000000     4.051000000
H    -2.209000000     1.032000000     3.337000000
O     1.300000000    -7.016000000    -4.110000000
H     1.716000000    -6.303000000    -3.625000000
H     1.401000000    -6.771000000    -5.030000000
O    -4.043000000     1.735000000     3.120000000
H    -4.645000000     1.005000000     2.973000000
H    -4.503000000     2.303000000     3.739000000
O    -4.889000000    -2.306000000     1.352000000
H    -5.231000000    -1.445000000     1.593000000
H    -4.940000000    -2.818000000     2.160000000
O     0.585000000     6.499000000     3.500000000
H     1.484000000     6.221000000     3.325000000
H     0.554000000     7.410000000     3.206000000
O    -2.740000000    -5.127000000     3.126000000
H    -2.466000000    -4.652000000     2.341000000
H    -3.574000000    -4.726000000     3.370000000
O     0.649000000    -1.857000000    -4.852000000
H     1.533000000    -1.658000000    -5.159000000
H     0.782000000    -2.412000000    -4.083000000
O    -3.351000000    -5.578000000    -4.890000000
H    -3.266000000    -5.084000000    -4.075000000
H    -2.452000000    -5.687000000    -5.199000000
O    -2.464000000     4.493000000    -2.048000000
H    -2.079000000     3.618000000    -2.005000000
H    -2.100000000     4.875000000    -2.847000000
O     4.596000000    -2.271000000    -0.257000000
H     3.930000000    -2.933000000    -0.075000000
H     5.412000000    -2.658000000     0.061000000
O     5.044000000     2.907000000     4.407000000
H     4.428000000     3.630000000     4.285000000
H     5.018000000     2.429000000     3.578000000
O     1.226000000     5.282000000     0.489000000
H     0.607000000     5.308000000    -0.240000000
H     1.040000000     4.454000000     0.931000000
O     3.024000000     6.704000000    -0.994000000
H     2.522000000     6.096000000    -0.452000000
H     2.958000000     6.345000000    -1.879000000
O    -0.247000000     5.397000000     5.741000000
H     0.252000000     5.852000000     5.063000000
H    -0.846000000     4.828000000     5.257000000
O    -1.086000000    -5.565000000    -2.681000000
H    -1.209000000    -4.678000000    -2.343000000
H    -1.307000000    -6.135000000    -1.944000000
O     6.158000000    -0.240000000    -1.457000000
H     6.990000000    -0.654000000    -1.684000000
H     5.546000000    -0.970000000    -1.360000000
O    -3.105000000     5.920000000     3.035000000
H    -3.960000000     6.267000000     2.782000000
H    -2.735000000     6.591000000     3.609000000
O     4.659000000     0.675000000    -3.708000000
H     4.277000000    -0.003000000    -4.265000000
H     5.286000000     0.206000000    -3.157000000
O     2.194000000    -3.960000000    -0.020000000
H     1.784000000    -4.012000000    -0.883000000
H     1.532000000    -4.302000000     0.581000000
O    -5.969000000     0.018000000     2.607000000
H    -6.617000000    -0.138000000     3.295000000
H    -6.472000000     0.400000000     1.888000000
O     2.185000000    -4.111000000    -6.431000000
H     2.207000000    -4.630000000    -7.235000000
H     1.280000000    -4.179000000    -6.126000000
O    -5.856000000    -1.791000000    -1.234000000
H    -5.503000000    -0.912000000    -1.371000000
H    -5.594000000    -2.018000000    -0.342000000
O     3.405000000     5.324000000     4.051000000
H     3.847000000     5.827000000     4.734000000
H     3.581000000     5.808000000     3.245000000
O    -2.493000000    -3.553000000     0.927000000
H    -3.326000000    -3.083000000     0.950000000
H    -2.112000000    -3.325000000     0.078000000
O    -0.268000000     3.201000000     4.104000000
H     0.548000000     2.815000000     3.788000000
H    -0.514000000     3.830000000     3.425000000
O    -1.155000000     2.708000000     6.764000000
H    -0.433000000     2.506000000     7.359000000
H    -0.727000000     2.975000000     5.951000000
O    -0.620000000    -5.236000000    -5.639000000
H    -0.319000000    -5.178000000    -4.732000000
H    -0.263000000    -6.066000000    -5.956000000
O    -2.678000000    -0.306000000     5.963000000
H    -1.951000000     0.051000000     5.453000000
H    -2.932000000     0.408000000     6.549000000
O    -1.352000000    -7.190000000    -0.619000000
H    -2.286000000    -7.001000000    -0.531000000
H    -1.059000000    -7.370000000     0.275000000
O    -0.263000000    -1.467000000     3.191000000
H    -0.561000000    -0.626000000     3.538000000
H    -0.359000000    -1.383000000     2.242000000
O     2.001000000     3.173000000     2.520000000
H     2.297000000     4.042000000     2.792000000
H     2.805000000     2.707000000     2.289000000
O     2.358000000    -4.783000000    -3.008000000
H     3.092000000    -4.187000000    -2.861000000
H     1.581000000    -4.260000000    -2.808000000
O     0.058000000    -5.101000000     1.284000000
H    -0.622000000    -4.451000000     1.458000000
H     0.110000000    -5.615000000     2.090000000
O    -1.734000000     1.967000000    -2.104000000
H    -1.137000000     1.604000000    -1.450000000
H    -1.485000000     1.535000000    -2.922000000
O    -0.718000000     0.754000000    -4.293000000
H    -0.087000000     0.073000000    -4.528000000
H    -1.557000000     0.423000000    -4.614000000
O    -5.883000000    -5.169000000    -2.497000000
H    -6.607000000    -4.870000000    -3.047000000
H    -5.173000000    -4.554000000    -2.680000000
O    -3.146000000    -2.252000000     3.901000000
H    -2.213000000    -2.249000000     3.687000000
H    -3.257000000    -1.512000000     4.498000000
