158
-3031.48388
C     1.260000000    -0.690000000    -0.320000000
H     2.254000000    -1.059000000    -0.561000000
C     1.135000000     0.511000000     0.363000000
H     2.045000000     0.927000000     0.787000000
C    -0.101000000     1.060000000     0.606000000
H    -0.109000000     1.935000000     1.161000000
C    -1.276000000     0.381000000     0.226000000
H    -2.193000000     0.842000000     0.584000000
C    -1.192000000    -0.835000000    -0.457000000
H    -2.012000000    -1.425000000    -0.859000000
C     0.046000000    -1.305000000    -0.796000000
C     0.151000000    -2.557000000    -1.681000000
O     1.258000000    -3.005000000    -1.795000000
O    -0.797000000    -2.975000000    -2.289000000
O     2.974000000     6.046000000    -1.605000000
H     3.009000000     5.130000000    -1.332000000
H     2.251000000     6.083000000    -2.232000000
O     4.757000000     0.316000000     0.960000000
H     4.091000000    -0.317000000     1.228000000
H     5.485000000    -0.221000000     0.648000000
O    -3.856000000     2.416000000    -0.556000000
H    -3.388000000     3.213000000    -0.805000000
H    -4.109000000     2.562000000     0.355000000
O     6.224000000     2.905000000    -1.160000000
H     6.380000000     3.200000000    -2.057000000
H     5.832000000     2.037000000    -1.259000000
O    -1.859000000    -2.234000000    -6.454000000
H    -1.550000000    -1.864000000    -5.627000000
H    -1.179000000    -2.007000000    -7.088000000
O    -1.365000000    -1.180000000    -4.127000000
H    -1.142000000    -1.896000000    -3.533000000
H    -2.042000000    -0.687000000    -3.663000000
O     5.484000000    -4.749000000    -2.413000000
H     5.607000000    -4.230000000    -3.208000000
H     6.256000000    -4.557000000    -1.881000000
O     0.078000000     3.865000000     3.442000000
H    -0.847000000     4.105000000     3.387000000
H     0.380000000     4.261000000     4.259000000
O    -0.298000000    -0.035000000     4.016000000
H     0.064000000     0.437000000     3.265000000
H    -0.669000000     0.650000000     4.573000000
O    -4.611000000     3.409000000     1.882000000
H    -5.278000000     3.096000000     2.493000000
H    -4.921000000     4.273000000     1.611000000
O    -2.330000000    -7.801000000    -0.853000000
H    -2.874000000    -7.838000000    -0.066000000
H    -1.994000000    -6.905000000    -0.870000000
O     2.496000000     3.167000000    -1.307000000
H     3.003000000     2.422000000    -1.629000000
H     1.615000000     2.818000000    -1.176000000
O    -5.805000000    -0.160000000     0.380000000
H    -5.409000000     0.657000000     0.076000000
H    -5.293000000    -0.401000000     1.152000000
O     0.929000000    -2.298000000     5.100000000
H     0.060000000    -2.488000000     5.453000000
H     0.783000000    -1.589000000     4.474000000
O    -3.170000000     3.041000000     6.815000000
H    -3.748000000     2.289000000     6.944000000
H    -2.594000000     2.780000000     6.097000000
O     1.008000000     5.189000000     5.473000000
H     1.557000000     5.902000000     5.149000000
H     1.323000000     5.028000000     6.362000000
O    -1.471000000    -4.279000000     1.284000000
H    -2.111000000    -4.355000000     0.576000000
H    -1.668000000    -3.438000000     1.696000000
O    -2.947000000     6.472000000     0.349000000
H    -2.731000000     5.915000000    -0.399000000
H    -3.902000000     6.432000000     0.410000000
O     2.726000000    -1.159000000    -3.422000000
H     2.765000000    -1.502000000    -4.315000000
H     2.476000000    -1.912000000    -2.887000000
O    -4.432000000    -2.697000000    -5.016000000
H    -3.865000000    -2.916000000    -5.755000000
H    -3.891000000    -2.857000000    -4.243000000
O    -0.573000000     5.177000000    -1.001000000
H    -0.735000000     4.262000000    -1.230000000
H     0.145000000     5.444000000    -1.574000000
O     3.451000000    -4.946000000    -5.351000000
H     3.141000000    -4.824000000    -4.454000000
H     3.396000000    -4.076000000    -5.745000000
O     5.945000000    -2.042000000    -0.172000000
H     5.197000000    -2.637000000    -0.126000000
H     6.709000000    -2.609000000    -0.067000000
O     5.750000000     0.715000000     3.985000000
H     5.297000000     1.468000000     3.606000000
H     6.185000000     0.297000000     3.242000000
O     0.548000000     5.787000000     1.303000000
H     0.313000000     5.766000000     0.375000000
H     0.321000000     4.915000000     1.627000000
O     2.697000000     7.372000000     1.688000000
H     1.871000000     6.894000000     1.772000000
H     3.223000000     6.837000000     1.094000000
O     0.233000000    -5.642000000    -2.725000000
H     1.156000000    -5.722000000    -2.964000000
H     0.124000000    -4.719000000    -2.497000000
O     6.499000000     0.262000000    -2.139000000
H     7.050000000    -0.023000000    -2.868000000
H     6.518000000    -0.470000000    -1.524000000
O    -4.167000000    -0.359000000     2.396000000
H    -4.310000000    -0.247000000     3.335000000
H    -3.381000000    -0.902000000     2.336000000
O    -2.618000000     4.679000000     3.898000000
H    -3.461000000     4.227000000     3.937000000
H    -2.791000000     5.465000000     3.381000000
O     3.858000000     0.992000000    -2.417000000
H     4.732000000     0.644000000    -2.239000000
H     3.328000000     0.220000000    -2.614000000
O    -4.142000000    -3.685000000     3.576000000
H    -3.562000000    -3.476000000     2.844000000
H    -3.621000000    -3.493000000     4.356000000
O     3.028000000    -3.641000000     0.102000000
H     2.261000000    -3.357000000    -0.395000000
H     2.732000000    -4.421000000     0.573000000
O    -3.580000000    -0.212000000    -2.700000000
H    -4.053000000     0.612000000    -2.812000000
H    -4.128000000    -0.725000000    -2.106000000
O    -2.869000000    -3.905000000    -0.983000000
H    -3.462000000    -3.188000000    -1.206000000
H    -2.116000000    -3.782000000    -1.560000000
O     1.994000000     1.815000000     3.314000000
H     2.742000000     2.357000000     3.063000000
H     1.230000000     2.300000000     3.002000000
O    -1.023000000     7.370000000     3.302000000
H    -1.339000000     7.460000000     2.403000000
H    -1.106000000     6.436000000     3.493000000
O    -5.270000000     1.957000000    -2.687000000
H    -4.728000000     2.071000000    -1.906000000
H    -5.510000000     2.847000000    -2.945000000
O    -0.643000000     2.189000000     5.655000000
H    -0.134000000     2.212000000     6.465000000
H    -0.147000000     2.736000000     5.046000000
O    -2.525000000    -4.841000000    -3.770000000
H    -2.219000000    -5.591000000    -3.259000000
H    -1.966000000    -4.116000000    -3.489000000
O     3.206000000    -0.612000000     3.156000000
H     2.628000000     0.098000000     3.435000000
H     4.030000000    -0.443000000     3.614000000
O     4.393000000     2.710000000     2.111000000
H     4.650000000     3.451000000     1.562000000
H     4.614000000     1.938000000     1.589000000
O     2.859000000    -4.847000000    -2.824000000
H     3.601000000    -4.484000000    -2.340000000
H     2.097000000    -4.382000000    -2.479000000
O     3.512000000    -3.308000000     2.910000000
H     3.584000000    -3.321000000     1.956000000
H     3.110000000    -2.463000000     3.109000000
O    -0.629000000     2.546000000    -2.074000000
H    -1.096000000     1.912000000    -1.529000000
H    -0.250000000     2.022000000    -2.779000000
O     0.782000000     0.509000000    -4.329000000
H     1.483000000    -0.066000000    -4.022000000
H     0.086000000    -0.087000000    -4.604000000
O    -4.911000000    -2.363000000    -1.271000000
H    -5.434000000    -3.160000000    -1.191000000
H    -5.172000000    -1.829000000    -0.521000000
O    -1.965000000    -2.079000000     2.578000000
H    -1.977000000    -2.340000000     3.499000000
H    -1.413000000    -1.298000000     2.557000000
