158
-3063.87500
C    -0.203000000    -0.663000000    -1.294000000
H    -0.598000000    -1.103000000    -2.206000000
C    -0.927000000    -0.884000000    -0.142000000
H    -1.700000000    -1.646000000    -0.202000000
C    -0.619000000    -0.227000000     1.039000000
H    -1.158000000    -0.328000000     1.906000000
C     0.408000000     0.686000000     1.067000000
H     0.673000000     1.173000000     2.002000000
C     1.096000000     0.964000000    -0.096000000
H     1.866000000     1.728000000    -0.018000000
C     0.800000000     0.337000000    -1.296000000
C     1.645000000     0.658000000    -2.489000000
O     2.407000000     1.608000000    -2.513000000
O     1.316000000     0.196000000    -3.568000000
O     1.939000000     1.683000000     4.871000000
H     2.131000000     2.243000000     5.623000000
H     2.466000000     2.047000000     4.160000000
O     1.628000000    -5.053000000    -2.854000000
H     0.965000000    -5.296000000    -2.207000000
H     1.168000000    -4.475000000    -3.462000000
O     0.018000000    -2.122000000    -4.813000000
H     0.375000000    -1.301000000    -4.474000000
H     0.284000000    -2.138000000    -5.732000000
O    -3.026000000    -0.674000000    -5.191000000
H    -2.838000000    -1.550000000    -4.855000000
H    -2.732000000    -0.698000000    -6.101000000
O    -2.531000000    -3.060000000    -4.293000000
H    -1.582000000    -3.084000000    -4.170000000
H    -2.876000000    -2.804000000    -3.438000000
O     2.065000000     4.405000000    -5.587000000
H     2.351000000     5.168000000    -6.090000000
H     1.178000000     4.231000000    -5.900000000
O    -1.351000000     3.586000000    -2.180000000
H    -2.098000000     4.122000000    -2.448000000
H    -1.209000000     2.989000000    -2.915000000
O    -3.645000000    -1.760000000     3.916000000
H    -3.474000000    -0.894000000     4.285000000
H    -3.873000000    -1.589000000     3.002000000
O    -6.780000000    -0.909000000     4.599000000
H    -6.535000000    -1.831000000     4.520000000
H    -6.329000000    -0.478000000     3.873000000
O     0.046000000    -3.032000000     2.901000000
H    -0.132000000    -3.943000000     3.135000000
H     0.833000000    -3.074000000     2.357000000
O     0.675000000    -0.747000000    -7.214000000
H     0.957000000     0.030000000    -6.731000000
H     1.424000000    -0.972000000    -7.765000000
O     0.276000000    -0.439000000     4.834000000
H     0.732000000     0.392000000     4.704000000
H     0.293000000    -0.859000000     3.974000000
O    -3.511000000    -2.012000000    -2.056000000
H    -3.425000000    -1.073000000    -1.893000000
H    -4.261000000    -2.280000000    -1.525000000
O    -5.867000000    -3.705000000     4.374000000
H    -4.991000000    -3.363000000     4.198000000
H    -5.798000000    -4.105000000     5.241000000
O    -1.310000000     1.212000000    -3.620000000
H    -1.970000000     0.534000000    -3.759000000
H    -0.475000000     0.744000000    -3.651000000
O    -5.783000000     2.013000000     4.001000000
H    -5.449000000     2.611000000     3.333000000
H    -6.694000000     1.857000000     3.750000000
O     1.664000000     5.887000000     0.236000000
H     1.356000000     5.262000000    -0.421000000
H     0.954000000     5.929000000     0.877000000
O     1.883000000     1.424000000    -5.889000000
H     1.887000000     1.227000000    -4.952000000
H     1.899000000     2.380000000    -5.933000000
O     1.148000000    -0.713000000     7.634000000
H     0.950000000    -1.625000000     7.843000000
H     0.684000000    -0.549000000     6.813000000
O    -4.038000000    -1.246000000     1.216000000
H    -3.706000000    -0.738000000     0.476000000
H    -3.853000000    -2.156000000     0.983000000
O    -1.580000000     3.512000000     0.980000000
H    -1.103000000     3.341000000     0.168000000
H    -2.500000000     3.535000000     0.717000000
O    -6.209000000     1.027000000     0.989000000
H    -6.903000000     1.100000000     1.645000000
H    -5.813000000     0.172000000     1.154000000
O    -2.153000000    -3.449000000     5.474000000
H    -2.416000000    -2.670000000     4.983000000
H    -1.756000000    -4.022000000     4.818000000
O     6.558000000     2.335000000    -4.770000000
H     5.635000000     2.590000000    -4.754000000
H     6.711000000     1.936000000    -3.913000000
O     1.164000000     4.140000000    -1.658000000
H     0.237000000     4.019000000    -1.865000000
H     1.585000000     3.339000000    -1.968000000
O    -4.322000000     2.828000000     0.075000000
H    -4.699000000     3.560000000     0.564000000
H    -4.901000000     2.089000000     0.267000000
O     1.948000000    -2.403000000     0.434000000
H     1.512000000    -1.607000000     0.738000000
H     1.305000000    -2.827000000    -0.134000000
O    -0.725000000    -5.646000000     3.503000000
H     0.001000000    -6.165000000     3.850000000
H    -1.488000000    -5.939000000     4.001000000
O    -1.069000000    -3.956000000    -1.260000000
H    -1.894000000    -3.490000000    -1.126000000
H    -0.786000000    -4.202000000    -0.380000000
O    -0.591000000     3.386000000    -5.866000000
H    -0.826000000     2.753000000    -5.188000000
H    -1.105000000     3.122000000    -6.629000000
O     5.366000000     2.029000000     1.157000000
H     5.063000000     2.845000000     0.760000000
H     5.252000000     1.372000000     0.471000000
O    -0.600000000     5.842000000     1.697000000
H    -0.941000000     4.978000000     1.466000000
H    -1.306000000     6.447000000     1.471000000
O     4.284000000    -2.276000000    -1.011000000
H     3.495000000    -2.220000000    -0.473000000
H     4.153000000    -3.057000000    -1.548000000
O     4.762000000     2.496000000     3.693000000
H     4.966000000     2.308000000     2.777000000
H     4.787000000     3.451000000     3.752000000
O    -3.082000000    -4.032000000     1.061000000
H    -2.154000000    -4.266000000     1.065000000
H    -3.527000000    -4.816000000     1.383000000
O     4.672000000    -0.246000000    -6.294000000
H     3.938000000    -0.086000000    -5.700000000
H     4.777000000     0.577000000    -6.772000000
O     1.039000000     4.505000000     3.581000000
H     0.669000000     5.072000000     2.904000000
H     1.656000000     5.065000000     4.052000000
O    -0.399000000    -5.377000000     0.870000000
H    -0.531000000    -5.398000000     1.818000000
H     0.280000000    -6.031000000     0.708000000
O     3.963000000     2.849000000    -4.176000000
H     3.230000000     3.440000000    -4.343000000
H     3.626000000     2.226000000    -3.532000000
O     7.063000000     1.245000000    -2.502000000
H     6.528000000     0.795000000    -1.849000000
H     7.825000000     0.677000000    -2.619000000
O    -2.410000000     0.664000000     5.244000000
H    -1.500000000     0.670000000     4.947000000
H    -2.396000000     1.147000000     6.070000000
O    -1.453000000     3.156000000     4.147000000
H    -0.592000000     3.505000000     3.918000000
H    -1.996000000     3.338000000     3.379000000
O     4.908000000     0.373000000    -1.099000000
H     4.705000000    -0.562000000    -1.119000000
H     4.353000000     0.754000000    -1.780000000
O    -3.396000000     0.558000000    -1.223000000
H    -3.833000000     1.402000000    -1.107000000
H    -2.474000000     0.739000000    -1.042000000
O     5.223000000     4.430000000    -2.212000000
H     4.865000000     4.063000000    -3.020000000
H     5.966000000     3.865000000    -2.001000000
O    -5.742000000    -2.812000000    -0.943000000
H    -5.853000000    -3.743000000    -0.752000000
H    -6.175000000    -2.365000000    -0.216000000
O     4.221000000     4.687000000     0.239000000
H     3.361000000     5.093000000     0.347000000
H     4.341000000     4.626000000    -0.709000000
O     2.704000000     6.303000000    -3.230000000
H     2.449000000     5.419000000    -2.966000000
H     2.209000000     6.465000000    -4.033000000
