158
-2993.64429
C     0.812000000    -1.165000000     0.432000000
H     1.478000000    -1.995000000     0.654000000
C     1.295000000     0.059000000     0.067000000
H     2.326000000     0.311000000    -0.170000000
C     0.488000000     1.154000000    -0.150000000
H     0.904000000     2.066000000    -0.503000000
C    -0.895000000     0.950000000    -0.085000000
H    -1.593000000     1.755000000    -0.300000000
C    -1.403000000    -0.290000000     0.159000000
H    -2.414000000    -0.407000000    -0.222000000
C    -0.581000000    -1.377000000     0.436000000
C    -1.143000000    -2.693000000     0.943000000
O    -0.387000000    -3.481000000     1.399000000
O    -2.296000000    -2.925000000     0.781000000
O    -3.875000000    -4.185000000     5.484000000
H    -3.529000000    -4.997000000     5.855000000
H    -3.254000000    -3.953000000     4.793000000
O    -7.238000000     0.952000000     0.160000000
H    -6.355000000     1.138000000    -0.160000000
H    -7.797000000     1.048000000    -0.611000000
O     1.268000000     1.333000000    -4.836000000
H     0.846000000     0.506000000    -4.601000000
H     2.096000000     1.072000000    -5.239000000
O    -3.616000000    -1.938000000    -2.994000000
H    -3.560000000    -2.481000000    -2.208000000
H    -4.460000000    -2.167000000    -3.384000000
O    -1.042000000    -7.526000000     1.980000000
H    -1.391000000    -6.636000000     1.942000000
H    -1.391000000    -7.954000000     1.198000000
O     3.866000000    -0.613000000     2.231000000
H     3.831000000    -0.704000000     1.278000000
H     3.345000000    -1.346000000     2.560000000
O     0.901000000    -4.068000000     5.035000000
H     1.526000000    -4.744000000     5.296000000
H     0.666000000    -3.630000000     5.853000000
O     1.780000000    -7.851000000     1.827000000
H     1.666000000    -8.202000000     0.943000000
H     0.895000000    -7.619000000     2.108000000
O    -1.994000000     7.031000000    -3.021000000
H    -2.244000000     6.686000000    -3.878000000
H    -1.575000000     6.293000000    -2.579000000
O     3.816000000    -2.493000000    -3.097000000
H     3.745000000    -1.678000000    -2.600000000
H     4.552000000    -2.955000000    -2.696000000
O     5.697000000     0.190000000    -2.363000000
H     6.484000000     0.028000000    -2.884000000
H     5.461000000     1.097000000    -2.561000000
O     3.057000000     1.099000000     4.193000000
H     3.123000000     0.503000000     4.939000000
H     3.320000000     0.570000000     3.440000000
O     4.460000000     2.359000000    -3.315000000
H     4.200000000     1.906000000    -4.117000000
H     3.655000000     2.768000000    -2.998000000
O     0.555000000     8.128000000    -1.120000000
H     0.396000000     7.213000000    -0.890000000
H    -0.173000000     8.605000000    -0.722000000
O     6.659000000     2.783000000     1.056000000
H     5.903000000     3.367000000     0.997000000
H     7.403000000     3.328000000     0.798000000
O     2.151000000    -2.563000000     2.992000000
H     1.821000000    -2.964000000     3.795000000
H     1.463000000    -2.720000000     2.345000000
O     1.664000000     5.707000000    -2.241000000
H     2.013000000     6.597000000    -2.292000000
H     2.437000000     5.153000000    -2.127000000
O     2.901000000    -6.223000000    -2.439000000
H     2.510000000    -5.608000000    -1.818000000
H     3.019000000    -5.712000000    -3.240000000
O    -2.869000000     5.324000000    -0.555000000
H    -3.640000000     5.580000000    -1.063000000
H    -2.313000000     4.861000000    -1.182000000
O    -0.533000000    -6.566000000    -1.226000000
H     0.132000000    -5.938000000    -0.945000000
H    -0.124000000    -7.422000000    -1.094000000
O    -1.032000000     4.278000000    -2.517000000
H    -0.112000000     4.514000000    -2.393000000
H    -1.086000000     3.997000000    -3.430000000
O    -1.132000000     5.640000000     1.574000000
H    -1.687000000     5.897000000     0.837000000
H    -1.052000000     4.690000000     1.494000000
O     0.951000000     5.877000000     3.258000000
H     0.518000000     5.908000000     2.405000000
H     1.881000000     5.785000000     3.052000000
O    -5.117000000    -5.825000000     1.774000000
H    -5.178000000    -4.930000000     2.109000000
H    -4.358000000    -5.811000000     1.191000000
O     0.356000000    -3.533000000    -2.674000000
H     0.757000000    -3.816000000    -1.852000000
H     0.327000000    -2.579000000    -2.610000000
O    -1.821000000    -6.506000000     5.738000000
H    -1.549000000    -5.871000000     5.075000000
H    -1.013000000    -6.728000000     6.201000000
O    -4.489000000    -3.264000000     2.282000000
H    -3.616000000    -3.162000000     1.902000000
H    -4.832000000    -2.372000000     2.338000000
O    -4.525000000     3.922000000     3.006000000
H    -4.360000000     3.265000000     2.330000000
H    -4.477000000     4.759000000     2.543000000
O     4.464000000     4.203000000     1.409000000
H     3.684000000     3.717000000     1.678000000
H     4.180000000     5.117000000     1.388000000
O    -2.978000000    -5.611000000    -0.197000000
H    -2.175000000    -5.896000000    -0.633000000
H    -2.802000000    -4.707000000     0.063000000
O     0.091000000    -0.996000000    -2.874000000
H     0.360000000    -0.563000000    -2.063000000
H    -0.706000000    -0.536000000    -3.137000000
O    -3.900000000     2.423000000     1.081000000
H    -3.889000000     1.524000000     0.753000000
H    -4.301000000     2.930000000     0.376000000
O     4.305000000    -4.080000000     1.082000000
H     4.405000000    -3.887000000     2.014000000
H     4.456000000    -3.242000000     0.646000000
O    -2.393000000     0.383000000    -3.691000000
H    -2.948000000    -0.377000000    -3.512000000
H    -2.980000000     1.134000000    -3.600000000
O    -5.295000000    -0.768000000     3.088000000
H    -6.159000000    -1.174000000     3.166000000
H    -5.429000000     0.136000000     3.373000000
O    -4.619000000    -3.297000000    -0.528000000
H    -5.471000000    -2.925000000    -0.298000000
H    -3.996000000    -2.828000000     0.026000000
O     2.108000000     2.552000000     1.794000000
H     2.421000000     1.965000000     2.483000000
H     1.361000000     2.094000000     1.411000000
O     4.024000000     4.506000000    -1.604000000
H     4.952000000     4.451000000    -1.834000000
H     4.019000000     4.604000000    -0.652000000
O    -5.396000000     0.160000000    -1.810000000
H    -5.010000000    -0.668000000    -2.097000000
H    -4.991000000     0.821000000    -2.372000000
O    -6.883000000    -1.847000000    -0.158000000
H    -6.425000000    -1.024000000    -0.329000000
H    -7.111000000    -1.806000000     0.771000000
O    -5.602000000    -6.155000000    -1.278000000
H    -4.891000000    -5.693000000    -0.835000000
H    -6.373000000    -5.608000000    -1.127000000
O     4.934000000    -1.293000000    -0.235000000
H     5.496000000    -0.959000000     0.465000000
H     5.246000000    -0.851000000    -1.024000000
O    -0.131000000    -0.002000000     4.794000000
H     0.035000000     0.776000000     4.261000000
H    -1.079000000    -0.005000000     4.924000000
O     1.473000000    -4.858000000     0.143000000
H     2.273000000    -4.803000000     0.666000000
H     0.784000000    -4.535000000     0.724000000
O    -4.218000000     2.527000000    -3.235000000
H    -4.881000000     2.704000000    -3.903000000
H    -4.368000000     3.194000000    -2.566000000
O    -0.943000000     2.760000000    -5.257000000
H    -1.493000000     1.988000000    -5.390000000
H    -0.069000000     2.407000000    -5.091000000
O    -1.345000000    -4.617000000     3.610000000
H    -1.353000000    -4.070000000     2.824000000
H    -0.512000000    -4.414000000     4.035000000
O    -1.488000000     1.768000000     3.132000000
H    -2.011000000     2.290000000     2.524000000
H    -2.127000000     1.217000000     3.585000000
