158
-3062.96436
C     0.968000000    -1.089000000     0.048000000
H     1.713000000    -1.876000000    -0.033000000
C     1.024000000     0.073000000    -0.813000000
H     1.835000000     0.344000000    -1.484000000
C    -0.050000000     0.990000000    -0.753000000
H     0.076000000     1.867000000    -1.325000000
C    -1.074000000     0.868000000     0.195000000
H    -1.861000000     1.606000000     0.328000000
C    -1.094000000    -0.255000000     1.004000000
H    -1.878000000    -0.528000000     1.707000000
C    -0.130000000    -1.294000000     0.897000000
C    -0.067000000    -2.553000000     1.709000000
O     0.972000000    -3.235000000     1.685000000
O    -0.969000000    -2.882000000     2.392000000
O    -6.546000000     3.081000000    -0.751000000
H    -5.769000000     2.949000000    -1.293000000
H    -7.252000000     3.240000000    -1.378000000
O     3.893000000     1.082000000    -4.663000000
H     3.466000000     0.252000000    -4.454000000
H     4.705000000     0.830000000    -5.103000000
O    -4.664000000    -0.045000000    -1.266000000
H    -4.763000000    -0.457000000    -0.408000000
H    -4.315000000    -0.739000000    -1.826000000
O     0.593000000    -6.906000000     3.811000000
H     0.132000000    -6.160000000     4.195000000
H     0.490000000    -6.790000000     2.866000000
O     4.782000000    -1.547000000     3.656000000
H     4.478000000    -1.606000000     2.750000000
H     5.443000000    -2.235000000     3.733000000
O     4.296000000    -6.491000000     1.290000000
H     3.624000000    -7.165000000     1.390000000
H     3.805000000    -5.679000000     1.168000000
O     0.705000000     7.376000000    -2.827000000
H     1.086000000     8.214000000    -3.089000000
H     1.240000000     6.719000000    -3.271000000
O     0.843000000    -3.033000000    -2.657000000
H     0.244000000    -3.156000000    -1.921000000
H     1.700000000    -3.286000000    -2.313000000
O     5.274000000    -1.292000000    -1.478000000
H     6.144000000    -0.955000000    -1.693000000
H     4.764000000    -0.512000000    -1.258000000
O     4.433000000     1.199000000    -0.283000000
H     3.512000000     1.457000000    -0.323000000
H     4.898000000     2.006000000    -0.061000000
O    -2.656000000     7.521000000     0.121000000
H    -2.422000000     6.859000000    -0.530000000
H    -3.311000000     8.065000000    -0.316000000
O    -3.529000000    -2.229000000    -2.200000000
H    -3.748000000    -2.467000000    -3.100000000
H    -2.690000000    -1.774000000    -2.270000000
O    -3.020000000     4.790000000    -1.073000000
H    -3.279000000     3.953000000    -1.459000000
H    -2.641000000     5.282000000    -1.801000000
O    -2.899000000     0.212000000    -4.431000000
H    -2.503000000    -0.232000000    -3.681000000
H    -2.171000000     0.359000000    -5.035000000
O     0.124000000    -3.965000000     7.395000000
H     0.363000000    -4.801000000     6.994000000
H     0.112000000    -3.345000000     6.666000000
O     2.508000000     5.458000000    -3.810000000
H     3.154000000     5.356000000    -3.110000000
H     1.989000000     4.655000000    -3.776000000
O    -4.915000000    -0.214000000     4.349000000
H    -4.382000000     0.088000000     5.085000000
H    -5.778000000    -0.375000000     4.729000000
O    -0.174000000     4.391000000    -0.198000000
H    -0.076000000     4.875000000     0.622000000
H    -1.112000000     4.212000000    -0.259000000
O    -1.928000000    -8.086000000     3.614000000
H    -1.003000000    -8.287000000     3.759000000
H    -1.946000000    -7.141000000     3.458000000
O    -0.597000000     0.039000000    -5.875000000
H    -1.120000000    -0.762000000    -5.905000000
H     0.299000000    -0.254000000    -6.043000000
O    -1.817000000    -6.393000000    -0.379000000
H    -2.524000000    -6.173000000     0.229000000
H    -1.017000000    -6.287000000     0.136000000
O     3.552000000    -3.594000000    -1.856000000
H     3.483000000    -3.895000000    -0.950000000
H     4.319000000    -3.022000000    -1.862000000
O    -4.175000000    -5.748000000     0.884000000
H    -4.689000000    -5.885000000     0.088000000
H    -4.142000000    -4.796000000     0.986000000
O    -2.717000000    -4.111000000     5.379000000
H    -3.556000000    -4.160000000     4.919000000
H    -2.067000000    -4.020000000     4.682000000
O    -2.024000000    -5.617000000     2.759000000
H    -1.668000000    -4.762000000     2.519000000
H    -2.920000000    -5.606000000     2.423000000
O    -1.340000000     1.884000000     3.865000000
H    -1.403000000     1.940000000     4.818000000
H    -1.086000000     0.977000000     3.694000000
O    -1.787000000     6.519000000    -2.927000000
H    -2.281000000     7.301000000    -3.175000000
H    -0.953000000     6.857000000    -2.600000000
O     2.734000000     4.452000000    -0.912000000
H     2.683000000     3.966000000    -1.735000000
H     1.821000000     4.565000000    -0.644000000
O     0.470000000    -5.792000000     0.995000000
H     1.024000000    -6.167000000     0.310000000
H     0.893000000    -4.962000000     1.217000000
O    -1.209000000    -0.965000000    -2.774000000
H    -0.530000000    -1.637000000    -2.836000000
H    -0.950000000    -0.431000000    -2.022000000
O    -3.476000000     3.619000000     3.934000000
H    -2.738000000     3.105000000     3.606000000
H    -3.071000000     4.329000000     4.431000000
O     2.671000000    -1.527000000    -4.277000000
H     2.060000000    -1.895000000    -3.639000000
H     2.249000000    -1.671000000    -5.124000000
O    -0.394000000    -0.646000000     4.468000000
H     0.031000000    -0.851000000     5.301000000
H    -0.635000000    -1.498000000     4.106000000
O     0.645000000     1.691000000    -3.759000000
H     0.420000000     0.764000000    -3.691000000
H    -0.067000000     2.074000000    -4.271000000
O    -4.920000000    -3.900000000     3.985000000
H    -5.681000000    -3.460000000     4.365000000
H    -4.863000000    -3.553000000     3.095000000
O    -3.259000000    -3.143000000     0.908000000
H    -3.817000000    -2.406000000     1.159000000
H    -2.503000000    -3.081000000     1.492000000
O     2.256000000     0.300000000     2.882000000
H     3.063000000    -0.213000000     2.835000000
H     1.727000000    -0.018000000     2.150000000
O     5.201000000     3.934000000     0.330000000
H     5.255000000     4.564000000     1.049000000
H     4.516000000     4.281000000    -0.241000000
O    -4.342000000     2.470000000    -2.254000000
H    -4.426000000     1.605000000    -1.853000000
H    -3.485000000     2.454000000    -2.679000000
O    -4.813000000    -1.070000000     1.507000000
H    -5.769000000    -1.035000000     1.525000000
H    -4.539000000    -0.502000000     2.227000000
O     2.160000000     2.302000000    -6.875000000
H     2.408000000     1.974000000    -6.010000000
H     2.356000000     3.238000000    -6.841000000
O    -1.083000000    -3.808000000    -1.060000000
H    -1.238000000    -4.740000000    -0.905000000
H    -1.914000000    -3.388000000    -0.838000000
O     4.212000000    -1.053000000     1.115000000
H     4.208000000    -0.146000000     0.810000000
H     4.328000000    -1.573000000     0.320000000
O     3.272000000    -4.031000000     1.007000000
H     3.886000000    -3.953000000     1.737000000
H     2.520000000    -3.498000000     1.268000000
O    -2.238000000     3.805000000    -3.825000000
H    -1.821000000     4.661000000    -3.726000000
H    -2.908000000     3.941000000    -4.495000000
O     2.891000000     2.496000000    -2.698000000
H     3.493000000     2.060000000    -3.301000000
H     2.024000000     2.178000000    -2.953000000
O     0.700000000    -3.414000000     4.605000000
H     0.801000000    -3.260000000     3.666000000
H     1.596000000    -3.436000000     4.942000000
O     1.446000000     2.778000000     3.828000000
H     1.819000000     1.932000000     3.582000000
H     0.504000000     2.619000000     3.880000000
