158
-3011.55315
C     0.089000000    -0.894000000    -1.159000000
H     0.088000000    -1.573000000    -2.008000000
C    -0.443000000    -1.202000000     0.083000000
H    -0.707000000    -2.241000000     0.262000000
C    -0.559000000    -0.263000000     1.098000000
H    -0.959000000    -0.434000000     2.112000000
C     0.032000000     0.971000000     0.877000000
H     0.035000000     1.597000000     1.766000000
C     0.632000000     1.300000000    -0.323000000
H     1.085000000     2.271000000    -0.507000000
C     0.631000000     0.362000000    -1.361000000
C     1.148000000     0.756000000    -2.751000000
O     1.585000000     1.821000000    -2.975000000
O     1.284000000    -0.074000000    -3.608000000
O     1.024000000     2.431000000     4.695000000
H     1.438000000     2.210000000     5.529000000
H     1.624000000     3.055000000     4.287000000
O     2.224000000     6.582000000     1.470000000
H     1.329000000     6.888000000     1.617000000
H     2.257000000     6.379000000     0.535000000
O     1.335000000    -4.509000000    -4.747000000
H     0.959000000    -5.057000000    -4.058000000
H     1.177000000    -3.612000000    -4.451000000
O    -0.647000000    -1.773000000    -4.793000000
H    -0.017000000    -1.153000000    -4.425000000
H    -1.083000000    -1.284000000    -5.491000000
O    -3.062000000    -3.077000000    -4.344000000
H    -2.172000000    -2.728000000    -4.389000000
H    -3.337000000    -2.915000000    -3.441000000
O     3.322000000    -1.312000000    -6.954000000
H     2.449000000    -0.936000000    -7.063000000
H     3.773000000    -1.115000000    -7.775000000
O     5.851000000     3.256000000    -3.916000000
H     5.615000000     2.525000000    -4.487000000
H     5.014000000     3.653000000    -3.677000000
O     0.243000000     5.155000000    -5.923000000
H    -0.077000000     6.047000000    -5.789000000
H     0.482000000     4.852000000    -5.047000000
O    -3.902000000     1.189000000     6.477000000
H    -4.145000000     0.279000000     6.308000000
H    -3.005000000     1.140000000     6.808000000
O    -1.393000000     4.212000000    -1.857000000
H    -1.514000000     3.728000000    -1.040000000
H    -1.908000000     3.726000000    -2.501000000
O    -3.392000000    -6.045000000    -0.701000000
H    -4.003000000    -5.696000000    -0.052000000
H    -2.555000000    -5.632000000    -0.488000000
O    -5.375000000    -1.735000000     3.311000000
H    -5.639000000    -0.847000000     3.072000000
H    -6.169000000    -2.258000000     3.204000000
O     1.089000000    -1.679000000     3.747000000
H     1.018000000    -2.600000000     3.494000000
H     1.723000000    -1.310000000     3.132000000
O    -0.156000000    -0.247000000    -7.459000000
H    -0.362000000     0.297000000    -8.220000000
H     0.295000000     0.345000000    -6.857000000
O    -0.644000000     0.339000000     4.436000000
H     0.052000000     0.987000000     4.333000000
H    -0.191000000    -0.504000000     4.423000000
O    -3.019000000    -1.728000000    -1.917000000
H    -3.197000000    -2.204000000    -1.106000000
H    -2.478000000    -0.987000000    -1.646000000
O     1.300000000    -4.367000000     2.938000000
H     2.164000000    -4.198000000     2.563000000
H     1.246000000    -5.321000000     2.996000000
O    -2.304000000     2.463000000    -3.757000000
H    -2.591000000     2.242000000    -4.643000000
H    -2.163000000     1.616000000    -3.333000000
O     4.508000000     1.245000000     3.177000000
H     4.884000000     2.107000000     3.357000000
H     4.223000000     1.295000000     2.265000000
O     2.894000000     6.432000000    -1.238000000
H     3.642000000     6.933000000    -1.563000000
H     2.373000000     6.246000000    -2.020000000
O     0.777000000     2.226000000    -6.096000000
H     1.017000000     1.749000000    -5.301000000
H     0.924000000     3.146000000    -5.876000000
O     0.586000000    -2.851000000     6.658000000
H     1.280000000    -2.920000000     7.313000000
H     0.907000000    -2.198000000     6.036000000
O    -4.486000000    -0.706000000     0.594000000
H    -3.763000000    -0.080000000     0.637000000
H    -4.061000000    -1.563000000     0.589000000
O    -3.313000000     2.311000000     0.753000000
H    -3.864000000     3.082000000     0.884000000
H    -3.120000000     2.001000000     1.637000000
O    -6.181000000     0.790000000     2.004000000
H    -5.497000000     0.498000000     1.401000000
H    -5.761000000     1.469000000     2.532000000
O    -2.529000000    -2.018000000     3.541000000
H    -3.484000000    -1.959000000     3.574000000
H    -2.233000000    -1.108000000     3.524000000
O     0.856000000     4.380000000    -3.232000000
H     0.131000000     4.264000000    -2.618000000
H     1.189000000     3.494000000    -3.379000000
O     2.583000000    -1.442000000     1.285000000
H     1.865000000    -0.838000000     1.093000000
H     2.458000000    -2.164000000     0.670000000
O    -1.230000000    -3.869000000     2.107000000
H    -0.336000000    -3.823000000     2.446000000
H    -1.720000000    -3.240000000     2.637000000
O    -0.051000000    -5.734000000    -2.680000000
H    -0.166000000    -5.649000000    -1.734000000
H    -0.833000000    -6.202000000    -2.975000000
O     4.014000000     1.600000000     0.021000000
H     4.198000000     2.529000000    -0.116000000
H     3.876000000     1.250000000    -0.859000000
O    -2.038000000     5.565000000     2.576000000
H    -2.180000000     5.342000000     1.656000000
H    -2.350000000     6.467000000     2.655000000
O     3.785000000    -1.173000000    -4.181000000
H     3.879000000    -1.179000000    -5.133000000
H     2.949000000    -0.735000000    -4.026000000
O     2.462000000    -0.647000000     6.304000000
H     2.233000000    -0.758000000     7.227000000
H     2.636000000     0.289000000     6.211000000
O    -3.215000000    -2.949000000     0.268000000
H    -2.419000000    -3.298000000     0.669000000
H    -3.919000000    -3.497000000     0.614000000
O     4.107000000     1.681000000    -6.222000000
H     4.053000000     1.143000000    -7.011000000
H     3.247000000     1.589000000    -5.811000000
O    -5.396000000     2.358000000     4.379000000
H    -4.931000000     1.827000000     5.025000000
H    -6.063000000     2.822000000     4.885000000
O    -1.382000000     3.658000000     4.487000000
H    -1.394000000     4.444000000     3.940000000
H    -0.502000000     3.300000000     4.372000000
O    -0.344000000    -5.580000000     0.128000000
H    -0.573000000    -5.136000000     0.945000000
H     0.120000000    -6.369000000     0.407000000
O     3.467000000     4.956000000    -3.797000000
H     2.540000000     4.904000000    -3.567000000
H     3.630000000     5.891000000    -3.925000000
O    -3.266000000     1.011000000     3.157000000
H    -2.430000000     0.979000000     3.623000000
H    -3.822000000     1.568000000     3.702000000
O     2.387000000     4.605000000     3.284000000
H     1.875000000     5.163000000     3.869000000
H     2.260000000     4.987000000     2.416000000
O     2.548000000    -4.110000000    -0.193000000
H     3.241000000    -4.597000000    -0.638000000
H     1.897000000    -4.774000000     0.035000000
O     4.306000000     1.023000000    -2.603000000
H     4.487000000     0.218000000    -3.087000000
H     3.368000000     1.170000000    -2.725000000
O    -1.190000000     0.639000000     7.458000000
H    -0.725000000     0.472000000     6.638000000
H    -1.004000000     1.557000000     7.656000000
O    -2.252000000     0.993000000    -1.431000000
H    -1.372000000     0.799000000    -1.111000000
H    -2.688000000     1.416000000    -0.691000000
O     4.504000000     4.651000000     0.243000000
H     3.791000000     5.055000000    -0.251000000
H     5.285000000     4.816000000    -0.285000000
O    -3.105000000    -4.312000000     5.228000000
H    -2.698000000    -3.760000000     4.560000000
H    -2.887000000    -3.885000000     6.057000000
