158
-3026.90643
C     1.433000000    -0.475000000     0.285000000
H     2.492000000    -0.700000000     0.379000000
C     0.906000000     0.837000000     0.561000000
H     1.515000000     1.535000000     1.130000000
C    -0.455000000     1.094000000     0.297000000
H    -0.901000000     2.055000000     0.500000000
C    -1.228000000     0.112000000    -0.252000000
H    -2.310000000     0.175000000    -0.329000000
C    -0.748000000    -1.104000000    -0.530000000
H    -1.407000000    -1.838000000    -0.986000000
C     0.583000000    -1.447000000    -0.314000000
C     1.189000000    -2.661000000    -0.931000000
O     2.353000000    -2.989000000    -0.845000000
O     0.575000000    -3.223000000    -1.805000000
O    -5.730000000     1.971000000    -1.895000000
H    -5.697000000     1.093000000    -1.515000000
H    -5.845000000     1.821000000    -2.833000000
O     6.274000000     1.051000000    -2.204000000
H     6.520000000     0.687000000    -1.353000000
H     5.629000000     0.435000000    -2.550000000
O    -3.995000000    -2.659000000    -3.643000000
H    -3.870000000    -3.178000000    -2.848000000
H    -4.617000000    -1.978000000    -3.389000000
O     2.795000000    -4.546000000     3.273000000
H     2.919000000    -4.599000000     2.326000000
H     2.710000000    -3.609000000     3.451000000
O     5.927000000    -3.549000000     3.161000000
H     6.565000000    -2.852000000     3.314000000
H     5.159000000    -3.098000000     2.809000000
O     1.282000000     4.690000000     0.455000000
H     2.158000000     4.515000000     0.797000000
H     1.435000000     5.112000000    -0.390000000
O    -1.658000000    -3.373000000     2.466000000
H    -2.136000000    -3.680000000     1.696000000
H    -1.211000000    -4.152000000     2.797000000
O    -2.703000000     2.809000000     2.108000000
H    -3.422000000     3.421000000     2.261000000
H    -3.085000000     1.946000000     2.266000000
O    -1.170000000    -3.839000000    -6.723000000
H    -0.440000000    -3.803000000    -6.105000000
H    -1.315000000    -4.774000000    -6.869000000
O    -0.235000000     3.980000000     3.136000000
H    -0.888000000     3.366000000     2.799000000
H     0.323000000     4.173000000     2.383000000
O     3.168000000     0.172000000     5.195000000
H     4.046000000     0.453000000     5.451000000
H     2.858000000    -0.351000000     5.934000000
O     2.762000000    -2.764000000    -3.814000000
H     2.703000000    -3.620000000    -4.238000000
H     2.223000000    -2.849000000    -3.027000000
O    -1.295000000    -5.316000000    -3.418000000
H    -0.429000000    -5.620000000    -3.689000000
H    -1.764000000    -6.114000000    -3.173000000
O     5.369000000    -5.422000000    -1.471000000
H     5.284000000    -5.378000000    -2.423000000
H     5.893000000    -6.208000000    -1.313000000
O    -1.259000000     7.674000000    -1.470000000
H    -2.030000000     8.052000000    -1.892000000
H    -1.614000000     7.123000000    -0.772000000
O    -3.267000000     3.877000000     5.223000000
H    -2.353000000     3.922000000     5.502000000
H    -3.695000000     4.597000000     5.686000000
O    -5.625000000    -1.341000000     2.187000000
H    -4.827000000    -0.867000000     1.954000000
H    -5.786000000    -1.106000000     3.101000000
O    -6.507000000     2.358000000     2.606000000
H    -6.026000000     2.193000000     3.417000000
H    -6.058000000     1.827000000     1.948000000
O    -2.019000000     6.417000000     0.857000000
H    -2.232000000     5.503000000     1.044000000
H    -1.428000000     6.675000000     1.564000000
O     5.260000000    -6.550000000     1.562000000
H     4.628000000    -5.898000000     1.258000000
H     5.549000000    -6.994000000     0.764000000
O     0.181000000     4.502000000    -2.900000000
H    -0.235000000     4.119000000    -2.128000000
H    -0.298000000     4.129000000    -3.640000000
O    -5.726000000    -0.686000000    -1.025000000
H    -5.016000000    -1.326000000    -1.084000000
H    -6.378000000    -1.103000000    -0.462000000
O    -2.192000000     3.129000000    -2.367000000
H    -2.776000000     3.876000000    -2.495000000
H    -2.611000000     2.413000000    -2.846000000
O    -0.716000000    -0.919000000     5.788000000
H    -0.321000000    -1.783000000     5.902000000
H    -0.323000000    -0.580000000     4.984000000
O    -6.636000000     4.562000000    -1.471000000
H    -6.189000000     3.715000000    -1.465000000
H    -7.188000000     4.547000000    -0.690000000
O     4.931000000    -2.967000000    -0.699000000
H     5.199000000    -3.831000000    -1.012000000
H     3.991000000    -2.930000000    -0.874000000
O     2.464000000    -1.718000000     2.978000000
H     2.763000000    -1.085000000     3.630000000
H     1.514000000    -1.601000000     2.948000000
O     1.279000000    -4.840000000    -6.042000000
H     1.514000000    -5.491000000    -6.703000000
H     1.499000000    -4.000000000    -6.444000000
O     2.316000000    -5.577000000    -2.165000000
H     1.821000000    -4.760000000    -2.105000000
H     3.206000000    -5.337000000    -1.907000000
O     0.935000000    -6.794000000    -4.033000000
H     1.430000000    -6.407000000    -3.311000000
H     1.182000000    -6.276000000    -4.799000000
O    -1.770000000    -4.720000000    -0.343000000
H    -1.273000000    -4.591000000    -1.151000000
H    -1.825000000    -5.671000000    -0.245000000
O    -0.417000000     6.722000000     3.026000000
H    -0.464000000     5.910000000     3.531000000
H     0.520000000     6.911000000     2.964000000
O     0.097000000     1.077000000    -2.724000000
H    -0.699000000     1.606000000    -2.662000000
H     0.164000000     0.645000000    -1.872000000
O     2.352000000     2.895000000    -2.584000000
H     1.861000000     2.073000000    -2.611000000
H     1.714000000     3.564000000    -2.831000000
O    -4.172000000    -2.908000000    -0.500000000
H    -3.435000000    -3.518000000    -0.494000000
H    -4.523000000    -2.947000000     0.390000000
O     3.989000000    -0.187000000    -3.715000000
H     3.534000000     0.360000000    -4.355000000
H     3.505000000    -1.014000000    -3.720000000
O     4.921000000    -1.016000000     1.486000000
H     4.001000000    -1.090000000     1.738000000
H     5.052000000    -1.718000000     0.848000000
O     3.784000000     3.728000000     0.388000000
H     4.545000000     4.164000000     0.004000000
H     3.457000000     3.160000000    -0.309000000
O    -2.997000000     0.210000000    -3.482000000
H    -2.487000000    -0.599000000    -3.473000000
H    -3.528000000     0.150000000    -4.276000000
O     0.413000000    -0.356000000    -5.015000000
H     0.036000000    -1.195000000    -4.749000000
H     0.401000000     0.175000000    -4.220000000
O     7.243000000    -1.713000000    -1.115000000
H     7.544000000    -1.980000000    -1.983000000
H     6.433000000    -2.206000000    -0.980000000
O    -0.217000000    -1.151000000     3.005000000
H    -0.696000000    -1.910000000     2.671000000
H    -0.512000000    -0.423000000     2.459000000
O     0.267000000     4.927000000     5.571000000
H    -0.141000000     4.670000000     4.745000000
H     0.656000000     4.120000000     5.908000000
O     0.985000000     7.144000000    -2.725000000
H     0.988000000     6.199000000    -2.877000000
H     0.067000000     7.357000000    -2.557000000
O     3.014000000    -5.045000000     0.649000000
H     2.532000000    -5.384000000    -0.105000000
H     2.968000000    -4.094000000     0.556000000
O    -1.062000000    -2.595000000    -4.075000000
H    -0.546000000    -2.704000000    -3.276000000
H    -1.435000000    -3.461000000    -4.240000000
O    -3.818000000     0.528000000     3.177000000
H    -4.263000000     0.781000000     3.985000000
H    -3.088000000    -0.019000000     3.467000000
O     6.037000000     1.422000000     0.955000000
H     5.337000000     2.034000000     0.730000000
H     5.593000000     0.709000000     1.414000000
