158
-3021.25044
C     1.111000000    -0.778000000    -0.564000000
H     1.978000000    -1.338000000    -0.905000000
C     1.251000000     0.277000000     0.380000000
H     2.185000000     0.539000000     0.871000000
C     0.102000000     0.920000000     0.808000000
H     0.169000000     1.646000000     1.630000000
C    -1.106000000     0.626000000     0.220000000
H    -2.015000000     1.155000000     0.495000000
C    -1.279000000    -0.464000000    -0.693000000
H    -2.282000000    -0.733000000    -1.015000000
C    -0.155000000    -1.195000000    -1.016000000
C    -0.229000000    -2.373000000    -1.884000000
O     0.765000000    -2.988000000    -2.251000000
O    -1.312000000    -2.773000000    -2.314000000
O     4.898000000     0.612000000    -3.985000000
H     5.147000000     0.156000000    -3.181000000
H     4.240000000     0.046000000    -4.388000000
O    -0.118000000    -6.391000000    -1.121000000
H    -0.442000000    -6.153000000    -1.990000000
H    -0.877000000    -6.291000000    -0.547000000
O    -0.149000000    -0.775000000     5.810000000
H     0.627000000    -0.225000000     5.697000000
H    -0.746000000    -0.492000000     5.117000000
O     4.656000000    -2.087000000    -1.145000000
H     5.359000000    -2.732000000    -1.229000000
H     4.322000000    -1.981000000    -2.036000000
O    -1.942000000     5.713000000     1.346000000
H    -1.317000000     6.276000000     1.803000000
H    -1.859000000     5.962000000     0.425000000
O    -3.511000000    -1.944000000     2.436000000
H    -4.431000000    -2.011000000     2.690000000
H    -3.463000000    -2.391000000     1.591000000
O    -5.877000000     2.342000000     0.636000000
H    -5.506000000     2.580000000     1.485000000
H    -5.379000000     1.571000000     0.365000000
O    -2.478000000    -4.237000000    -6.564000000
H    -2.487000000    -3.942000000    -5.653000000
H    -1.740000000    -4.845000000    -6.611000000
O    -4.714000000     5.207000000     2.217000000
H    -4.508000000     4.321000000     2.513000000
H    -3.914000000     5.508000000     1.786000000
O     1.862000000     1.058000000     6.304000000
H     2.670000000     1.140000000     6.811000000
H     1.324000000     1.796000000     6.589000000
O     0.645000000    -1.421000000    -4.602000000
H    -0.301000000    -1.300000000    -4.683000000
H     0.744000000    -2.072000000    -3.906000000
O    -4.637000000    -5.341000000    -3.450000000
H    -5.399000000    -5.016000000    -3.930000000
H    -4.972000000    -5.543000000    -2.576000000
O     3.541000000    -5.443000000    -3.490000000
H     4.491000000    -5.371000000    -3.582000000
H     3.381000000    -5.317000000    -2.554000000
O     5.262000000     4.259000000    -1.902000000
H     4.996000000     3.985000000    -2.779000000
H     5.293000000     3.447000000    -1.396000000
O    -6.067000000    -0.785000000     1.228000000
H    -6.039000000    -0.456000000     2.126000000
H    -6.172000000    -1.732000000     1.323000000
O     0.421000000    -3.348000000     3.313000000
H    -0.115000000    -2.560000000     3.407000000
H     1.181000000    -3.061000000     2.807000000
O     4.600000000    -4.860000000     0.037000000
H     3.696000000    -4.927000000    -0.269000000
H     5.128000000    -4.920000000    -0.759000000
O     0.865000000    -6.043000000     2.036000000
H     0.999000000    -5.502000000     1.257000000
H     0.722000000    -5.414000000     2.743000000
O    -3.797000000     4.302000000    -0.693000000
H    -4.695000000     4.359000000    -0.368000000
H    -3.752000000     4.959000000    -1.388000000
O    -3.263000000     1.799000000     5.298000000
H    -2.889000000     0.993000000     4.942000000
H    -2.519000000     2.255000000     5.691000000
O     4.038000000     4.029000000     0.961000000
H     3.693000000     3.443000000     0.288000000
H     4.715000000     4.537000000     0.513000000
O     3.462000000    -2.549000000     1.242000000
H     3.555000000    -1.860000000     0.584000000
H     3.679000000    -3.357000000     0.776000000
O     1.871000000     1.329000000     3.576000000
H     1.737000000     1.221000000     4.517000000
H     1.598000000     2.228000000     3.396000000
O     2.623000000     2.442000000    -1.104000000
H     2.458000000     2.821000000    -1.968000000
H     1.756000000     2.199000000    -0.779000000
O    -0.490000000    -4.973000000    -3.725000000
H    -0.486000000    -4.141000000    -3.252000000
H     0.382000000    -5.031000000    -4.114000000
O    -2.322000000    -6.965000000    -3.852000000
H    -1.573000000    -6.385000000    -3.989000000
H    -3.081000000    -6.381000000    -3.856000000
O    -3.159000000    -3.230000000    -0.567000000
H    -2.420000000    -3.100000000    -1.162000000
H    -3.110000000    -4.154000000    -0.322000000
O    -4.150000000     0.096000000    -3.344000000
H    -4.768000000     0.826000000    -3.317000000
H    -4.639000000    -0.645000000    -2.987000000
O    -0.865000000     3.671000000    -0.684000000
H    -0.766000000     2.719000000    -0.707000000
H    -1.773000000     3.811000000    -0.415000000
O     0.172000000     2.021000000    -4.743000000
H    -0.029000000     1.129000000    -5.030000000
H    -0.673000000     2.382000000    -4.475000000
O    -5.487000000    -1.656000000    -1.299000000
H    -5.780000000    -1.427000000    -0.417000000
H    -4.636000000    -2.074000000    -1.168000000
O     3.601000000    -1.948000000    -3.550000000
H     4.146000000    -2.559000000    -4.045000000
H     2.703000000    -2.223000000    -3.735000000
O     3.527000000    -1.208000000     3.863000000
H     3.112000000    -0.384000000     3.610000000
H     3.604000000    -1.699000000     3.045000000
O     1.367000000     5.561000000    -0.053000000
H     2.117000000     5.112000000     0.337000000
H     0.642000000     4.943000000     0.041000000
O     0.735000000     5.904000000    -3.165000000
H     0.579000000     5.655000000    -2.253000000
H     1.377000000     5.268000000    -3.480000000
O    -2.107000000    -0.729000000    -4.900000000
H    -2.610000000    -1.537000000    -4.795000000
H    -2.473000000    -0.133000000    -4.246000000
O    -0.155000000     5.768000000     5.333000000
H     0.794000000     5.649000000     5.297000000
H    -0.430000000     5.273000000     6.105000000
O     6.084000000     0.526000000    -0.723000000
H     6.655000000    -0.198000000    -0.981000000
H     5.474000000     0.138000000    -0.095000000
O     0.031000000     2.893000000     7.047000000
H    -0.605000000     2.785000000     7.754000000
H     0.701000000     3.470000000     7.413000000
O     1.679000000    -6.573000000    -5.197000000
H     2.097000000    -6.279000000    -4.388000000
H     2.078000000    -6.036000000    -5.881000000
O    -1.600000000    -0.059000000     3.230000000
H    -2.318000000    -0.682000000     3.120000000
H    -1.161000000    -0.046000000     2.380000000
O    -3.078000000     5.250000000     5.160000000
H    -3.564000000     5.336000000     4.339000000
H    -2.229000000     5.653000000     4.980000000
O     2.268000000    -5.013000000    -1.120000000
H     1.665000000    -5.731000000    -0.926000000
H     1.701000000    -4.286000000    -1.375000000
O    -2.594000000    -5.795000000     0.099000000
H    -3.019000000    -6.453000000    -0.451000000
H    -2.317000000    -6.277000000     0.878000000
O     1.919000000     0.142000000    -6.466000000
H     1.512000000     1.006000000    -6.402000000
H     1.721000000    -0.279000000    -5.630000000
O    -3.244000000    -3.068000000    -4.019000000
H    -2.567000000    -2.851000000    -3.378000000
H    -3.537000000    -3.945000000    -3.770000000
O    -4.663000000     2.671000000     3.155000000
H    -5.489000000     2.228000000     3.347000000
H    -4.144000000     2.568000000     3.953000000
O     5.780000000     2.615000000     2.355000000
H     5.141000000     3.200000000     1.948000000
H     5.254000000     1.905000000     2.724000000
