158
-3027.51173
C     0.586000000     0.094000000    -1.405000000
H     1.076000000     0.167000000    -2.373000000
C     1.222000000     0.476000000    -0.205000000
H     2.188000000     0.975000000    -0.233000000
C     0.554000000     0.396000000     1.003000000
H     0.974000000     0.682000000     2.013000000
C    -0.695000000    -0.206000000     1.073000000
H    -1.241000000    -0.360000000     2.000000000
C    -1.325000000    -0.615000000    -0.070000000
H    -2.307000000    -1.078000000    -0.031000000
C    -0.678000000    -0.468000000    -1.317000000
C    -1.388000000    -0.998000000    -2.527000000
O    -0.982000000    -0.713000000    -3.618000000
O    -2.409000000    -1.615000000    -2.332000000
O    -0.303000000     1.544000000    -4.743000000
H    -0.593000000     0.753000000    -4.288000000
H     0.648000000     1.456000000    -4.795000000
O     1.188000000    -0.072000000    -7.210000000
H     0.648000000     0.027000000    -7.995000000
H     1.533000000    -0.963000000    -7.268000000
O    -5.036000000     0.639000000     1.506000000
H    -4.642000000     0.373000000     2.336000000
H    -5.978000000     0.535000000     1.643000000
O     2.650000000    -3.299000000    -4.097000000
H     2.044000000    -3.714000000    -3.482000000
H     3.165000000    -4.024000000    -4.451000000
O     7.515000000     0.078000000    -1.295000000
H     6.617000000     0.126000000    -0.966000000
H     8.052000000     0.402000000    -0.573000000
O    -6.624000000    -4.300000000    -1.575000000
H    -7.035000000    -3.491000000    -1.878000000
H    -5.820000000    -4.013000000    -1.142000000
O    -5.656000000    -2.007000000     0.551000000
H    -5.472000000    -1.951000000    -0.386000000
H    -5.276000000    -1.209000000     0.918000000
O    -3.241000000     0.564000000    -4.311000000
H    -3.118000000     1.444000000    -3.955000000
H    -2.500000000     0.062000000    -3.973000000
O    -0.088000000    -4.469000000    -4.902000000
H    -0.076000000    -3.512000000    -4.861000000
H     0.108000000    -4.672000000    -5.817000000
O     1.557000000    -2.026000000     2.372000000
H     1.089000000    -2.571000000     3.005000000
H     0.875000000    -1.704000000     1.782000000
O     1.278000000     1.714000000     6.871000000
H     1.355000000     2.566000000     6.443000000
H     1.476000000     1.081000000     6.181000000
O    -0.193000000     5.169000000     5.236000000
H    -0.809000000     4.588000000     4.790000000
H    -0.747000000     5.754000000     5.752000000
O    -4.757000000     2.715000000    -1.301000000
H    -3.853000000     2.570000000    -1.580000000
H    -4.698000000     2.832000000    -0.352000000
O     3.924000000     4.065000000    -1.655000000
H     4.350000000     3.920000000    -0.810000000
H     4.435000000     3.544000000    -2.274000000
O     4.975000000    -0.123000000    -0.025000000
H     4.605000000    -0.332000000    -0.883000000
H     4.860000000    -0.924000000     0.486000000
O     4.188000000    -2.152000000     1.931000000
H     4.346000000    -1.672000000     2.744000000
H     3.242000000    -2.299000000     1.921000000
O     2.186000000     3.757000000     5.307000000
H     2.876000000     4.359000000     5.585000000
H     1.384000000     4.279000000     5.344000000
O    -0.817000000     3.523000000    -0.217000000
H    -0.048000000     3.783000000     0.290000000
H    -1.322000000     2.971000000     0.379000000
O    -2.519000000    -4.059000000    -3.426000000
H    -2.438000000    -3.131000000    -3.208000000
H    -1.692000000    -4.277000000    -3.857000000
O    -3.737000000    -0.522000000    -6.832000000
H    -3.198000000     0.266000000    -6.762000000
H    -3.445000000    -1.077000000    -6.109000000
O     2.540000000    -0.113000000     5.342000000
H     3.388000000    -0.438000000     5.645000000
H     2.122000000    -0.874000000     4.938000000
O    -5.131000000    -1.730000000    -2.114000000
H    -4.208000000    -1.554000000    -1.930000000
H    -5.316000000    -1.233000000    -2.911000000
O    -0.231000000    -1.623000000     6.232000000
H    -1.146000000    -1.449000000     6.015000000
H    -0.100000000    -1.198000000     7.079000000
O     4.267000000    -2.463000000     4.672000000
H     4.294000000    -3.409000000     4.527000000
H     4.867000000    -2.316000000     5.403000000
O    -2.064000000     2.527000000    -2.453000000
H    -1.509000000     2.731000000    -3.206000000
H    -1.520000000     2.732000000    -1.692000000
O     0.317000000     4.491000000    -2.623000000
H     0.163000000     4.081000000    -1.772000000
H     1.175000000     4.907000000    -2.538000000
O     3.751000000     0.832000000    -2.961000000
H     3.747000000    -0.120000000    -2.867000000
H     2.912000000     1.112000000    -2.594000000
O     1.258000000     4.391000000     1.245000000
H     2.108000000     3.983000000     1.408000000
H     1.227000000     5.130000000     1.853000000
O     2.294000000     1.596000000    -5.258000000
H     3.063000000     1.319000000    -4.762000000
H     2.144000000     0.887000000    -5.883000000
O    -3.079000000     2.543000000     1.244000000
H    -3.407000000     3.094000000     1.954000000
H    -3.589000000     1.736000000     1.311000000
O    -4.238000000    -5.238000000     1.562000000
H    -4.218000000    -4.984000000     0.639000000
H    -4.899000000    -4.667000000     1.953000000
O    -5.870000000    -0.486000000    -4.637000000
H    -4.997000000    -0.098000000    -4.578000000
H    -6.450000000     0.255000000    -4.811000000
O    -3.728000000     1.195000000     4.008000000
H    -3.381000000     0.333000000     4.237000000
H    -4.051000000     1.551000000     4.836000000
O    -1.739000000     2.691000000     7.261000000
H    -1.606000000     3.629000000     7.392000000
H    -0.863000000     2.312000000     7.333000000
O     0.215000000    -3.774000000     3.684000000
H    -0.269000000    -4.328000000     3.072000000
H    -0.453000000    -3.433000000     4.279000000
O    -1.722000000     1.479000000    -6.848000000
H    -1.208000000     1.502000000    -6.041000000
H    -1.115000000     1.146000000    -7.509000000
O     5.788000000     4.496000000     3.187000000
H     5.391000000     4.163000000     2.383000000
H     6.599000000     4.915000000     2.899000000
O    -0.646000000    -1.940000000    -5.944000000
H    -0.645000000    -1.182000000    -6.527000000
H    -0.910000000    -1.588000000    -5.093000000
O     3.743000000    -1.751000000    -1.845000000
H     3.421000000    -2.201000000    -2.627000000
H     4.242000000    -2.418000000    -1.373000000
O     1.418000000    -4.342000000     0.865000000
H     1.416000000    -3.724000000     1.596000000
H     0.724000000    -4.966000000     1.076000000
O     4.362000000     2.751000000     0.933000000
H     4.462000000     1.853000000     0.618000000
H     4.008000000     2.656000000     1.818000000
O    -2.239000000     3.674000000     3.835000000
H    -2.386000000     2.732000000     3.929000000
H    -2.953000000     4.078000000     4.328000000
O     6.261000000     2.307000000    -3.244000000
H     5.444000000     1.835000000    -3.408000000
H     6.830000000     1.661000000    -2.826000000
O    -4.378000000    -5.845000000    -4.365000000
H    -3.731000000    -5.236000000    -4.012000000
H    -4.837000000    -5.344000000    -5.039000000
O     5.605000000     0.333000000     5.248000000
H     5.460000000     1.254000000     5.464000000
H     5.975000000     0.349000000     4.365000000
O    -3.063000000    -1.385000000     4.879000000
H    -3.033000000    -2.339000000     4.807000000
H    -3.217000000    -1.219000000     5.809000000
O     3.260000000     2.007000000     3.127000000
H     2.943000000     1.164000000     3.452000000
H     3.171000000     2.600000000     3.873000000
O    -3.788000000    -4.942000000    -1.144000000
H    -3.447000000    -4.541000000    -1.943000000
H    -3.498000000    -5.853000000    -1.191000000
