158
-3052.64808
C     0.942000000     0.670000000    -0.942000000
H     1.577000000     1.303000000    -1.556000000
C     0.730000000     1.082000000     0.337000000
H     1.223000000     1.917000000     0.828000000
C    -0.143000000     0.323000000     1.204000000
H    -0.222000000     0.526000000     2.259000000
C    -0.826000000    -0.768000000     0.597000000
H    -1.472000000    -1.289000000     1.298000000
C    -0.589000000    -1.147000000    -0.732000000
H    -1.152000000    -1.962000000    -1.180000000
C     0.315000000    -0.427000000    -1.509000000
C     0.543000000    -0.820000000    -2.955000000
O     1.431000000    -0.277000000    -3.537000000
O    -0.196000000    -1.587000000    -3.506000000
O    -0.030000000     4.187000000    -0.943000000
H     0.676000000     4.289000000    -0.305000000
H    -0.618000000     3.543000000    -0.548000000
O     0.511000000    -4.838000000     4.205000000
H     0.153000000    -5.081000000     5.059000000
H     0.045000000    -4.037000000     3.969000000
O    -4.061000000    -2.139000000     5.858000000
H    -4.739000000    -1.826000000     5.259000000
H    -3.838000000    -1.374000000     6.388000000
O     2.762000000     1.457000000    -5.302000000
H     2.136000000     1.246000000    -5.994000000
H     2.412000000     1.026000000    -4.522000000
O    -5.781000000    -1.683000000     1.778000000
H    -5.070000000    -2.315000000     1.886000000
H    -5.714000000    -1.114000000     2.546000000
O     0.426000000     3.600000000     5.495000000
H     0.797000000     4.481000000     5.539000000
H     0.915000000     3.100000000     6.149000000
O     3.819000000    -0.511000000    -3.185000000
H     2.879000000    -0.499000000    -3.369000000
H     4.205000000     0.025000000    -3.877000000
O    -2.552000000     3.377000000     5.196000000
H    -1.689000000     3.545000000     5.575000000
H    -2.378000000     3.204000000     4.271000000
O     4.197000000    -0.462000000     4.404000000
H     3.383000000     0.029000000     4.518000000
H     4.366000000    -0.429000000     3.462000000
O     4.643000000     3.110000000    -6.265000000
H     4.007000000     2.631000000    -5.734000000
H     5.398000000     3.226000000    -5.689000000
O     2.717000000    -3.523000000    -3.747000000
H     3.645000000    -3.386000000    -3.554000000
H     2.376000000    -2.646000000    -3.919000000
O     3.867000000    -0.730000000    -0.421000000
H     4.269000000     0.125000000    -0.270000000
H     3.799000000    -0.798000000    -1.373000000
O     4.722000000    -0.679000000    -6.715000000
H     5.059000000    -0.478000000    -5.842000000
H     4.664000000     0.172000000    -7.150000000
O    -1.714000000    -0.092000000    -5.351000000
H    -1.204000000    -0.552000000    -4.684000000
H    -2.478000000    -0.650000000    -5.495000000
O     2.137000000    -5.131000000    -1.412000000
H     2.184000000    -5.990000000    -1.831000000
H     2.555000000    -4.537000000    -2.035000000
O     3.808000000    -3.048000000    -6.641000000
H     2.872000000    -2.949000000    -6.464000000
H     4.119000000    -2.155000000    -6.791000000
O     1.796000000    -1.978000000     2.076000000
H     1.528000000    -1.063000000     1.992000000
H     1.589000000    -2.206000000     2.982000000
O     0.320000000    -3.909000000     0.553000000
H     1.011000000    -4.284000000     0.006000000
H     0.729000000    -3.150000000     0.969000000
O     0.529000000     4.264000000     2.020000000
H     1.389000000     4.185000000     2.432000000
H     0.248000000     5.157000000     2.222000000
O     4.543000000    -2.603000000     1.377000000
H     3.662000000    -2.426000000     1.707000000
H     4.602000000    -2.095000000     0.568000000
O     5.178000000     1.260000000     2.112000000
H     5.357000000     1.324000000     1.174000000
H     6.032000000     1.378000000     2.528000000
O    -1.908000000     3.034000000     2.391000000
H    -2.384000000     3.365000000     1.629000000
H    -0.998000000     3.282000000     2.231000000
O    -3.517000000    -2.870000000    -6.155000000
H    -3.545000000    -3.825000000    -6.210000000
H    -3.715000000    -2.677000000    -5.238000000
O    -0.676000000    -4.151000000    -3.517000000
H    -0.358000000    -3.249000000    -3.572000000
H    -0.119000000    -4.638000000    -4.123000000
O    -2.270000000    -4.657000000     0.656000000
H    -1.356000000    -4.407000000     0.794000000
H    -2.271000000    -5.101000000    -0.192000000
O    -2.357000000    -5.348000000    -2.046000000
H    -1.837000000    -4.835000000    -2.663000000
H    -1.929000000    -6.204000000    -2.025000000
O     0.554000000    -1.986000000     4.505000000
H     0.653000000    -1.462000000     5.300000000
H    -0.392000000    -2.063000000     4.385000000
O    -5.144000000    -0.703000000    -2.517000000
H    -4.625000000    -1.404000000    -2.911000000
H    -5.142000000    -0.006000000    -3.173000000
O     1.160000000    -0.530000000     6.788000000
H     1.826000000    -1.097000000     7.175000000
H     1.001000000     0.141000000     7.452000000
O    -2.209000000     2.086000000    -0.875000000
H    -1.705000000     1.327000000    -0.581000000
H    -3.087000000     1.941000000    -0.522000000
O     2.831000000     4.819000000    -0.026000000
H     2.989000000     4.998000000     0.901000000
H     3.205000000     5.572000000    -0.483000000
O     0.848000000     0.375000000    -7.371000000
H     0.395000000     0.360000000    -8.214000000
H     0.176000000     0.643000000    -6.744000000
O     5.669000000     1.667000000    -0.486000000
H     6.426000000     1.682000000    -1.072000000
H     4.950000000     2.012000000    -1.015000000
O     3.463000000     2.966000000     3.004000000
H     2.982000000     2.313000000     3.511000000
H     3.981000000     2.453000000     2.383000000
O     4.049000000     3.290000000    -1.941000000
H     3.661000000     3.716000000    -1.177000000
H     3.586000000     3.669000000    -2.688000000
O    -4.368000000     1.319000000     0.283000000
H    -4.608000000     0.446000000     0.592000000
H    -4.192000000     1.816000000     1.082000000
O    -1.974000000    -2.680000000     4.281000000
H    -2.353000000    -3.047000000     3.483000000
H    -2.723000000    -2.535000000     4.858000000
O     0.796000000    -5.499000000    -5.901000000
H     0.909000000    -5.230000000    -6.813000000
H     1.641000000    -5.318000000    -5.491000000
O    -3.295000000     3.325000000    -3.293000000
H    -3.764000000     3.947000000    -2.737000000
H    -2.882000000     2.718000000    -2.679000000
O     5.521000000    -2.882000000    -3.081000000
H     5.667000000    -3.226000000    -2.200000000
H     5.431000000    -1.937000000    -2.957000000
O     1.160000000    -2.053000000    -6.170000000
H     1.280000000    -1.170000000    -6.519000000
H     0.714000000    -1.922000000    -5.333000000
O    -3.937000000    -3.582000000     2.469000000
H    -4.270000000    -4.250000000     3.068000000
H    -3.278000000    -4.037000000     1.944000000
O     2.030000000     3.965000000    -3.557000000
H     1.976000000     3.434000000    -4.351000000
H     1.330000000     3.630000000    -2.997000000
O    -1.345000000     2.228000000    -6.680000000
H    -1.676000000     1.430000000    -6.269000000
H    -1.530000000     2.920000000    -6.045000000
O     1.954000000     0.940000000     4.751000000
H     1.448000000     1.738000000     4.905000000
H     1.569000000     0.295000000     5.344000000
O    -3.859000000     0.738000000     6.365000000
H    -3.683000000     1.521000000     5.843000000
H    -4.569000000     0.997000000     6.953000000
O    -3.269000000    -2.663000000    -3.464000000
H    -3.302000000    -3.514000000    -3.026000000
H    -2.362000000    -2.375000000    -3.359000000
O    -4.939000000     0.329000000     3.505000000
H    -5.241000000     0.792000000     4.287000000
H    -4.033000000     0.616000000     3.392000000
