158
-3050.13201
C     0.063000000     0.271000000    -1.467000000
H     0.257000000     0.549000000    -2.499000000
C     0.818000000     0.985000000    -0.490000000
H     1.488000000     1.761000000    -0.853000000
C     0.645000000     0.643000000     0.878000000
H     1.233000000     1.178000000     1.630000000
C    -0.317000000    -0.310000000     1.264000000
H    -0.363000000    -0.639000000     2.299000000
C    -1.065000000    -0.960000000     0.207000000
H    -1.831000000    -1.697000000     0.434000000
C    -0.907000000    -0.653000000    -1.129000000
C    -1.743000000    -1.363000000    -2.236000000
O    -1.646000000    -0.929000000    -3.357000000
O    -2.242000000    -2.435000000    -2.005000000
O    -0.789000000     0.143000000    -5.609000000
H    -1.074000000    -0.288000000    -4.803000000
H     0.160000000     0.022000000    -5.622000000
O    -1.032000000     5.567000000    -0.244000000
H    -0.577000000     4.774000000     0.039000000
H    -0.824000000     5.644000000    -1.175000000
O     1.498000000     5.749000000     4.194000000
H     2.312000000     6.185000000     4.446000000
H     0.911000000     6.463000000     3.944000000
O     0.498000000    -2.404000000    -6.982000000
H     0.912000000    -1.691000000    -7.469000000
H     1.230000000    -2.936000000    -6.669000000
O    -4.392000000    -0.275000000     2.838000000
H    -4.128000000    -1.194000000     2.814000000
H    -5.306000000    -0.296000000     3.120000000
O    -2.010000000     5.117000000     2.463000000
H    -1.577000000     4.278000000     2.621000000
H    -2.258000000     5.087000000     1.539000000
O    -4.804000000    -5.914000000    -1.497000000
H    -4.622000000    -5.525000000    -2.353000000
H    -4.108000000    -5.580000000    -0.930000000
O    -6.350000000    -2.327000000     1.113000000
H    -5.543000000    -2.701000000     0.759000000
H    -6.573000000    -1.622000000     0.506000000
O     4.359000000     2.994000000     4.566000000
H     4.986000000     2.287000000     4.412000000
H     4.652000000     3.399000000     5.382000000
O    -2.524000000     1.543000000    -3.867000000
H    -1.972000000     1.314000000    -4.615000000
H    -2.537000000     0.752000000    -3.328000000
O     1.678000000    -4.392000000    -3.661000000
H     0.754000000    -4.282000000    -3.436000000
H     2.103000000    -4.606000000    -2.830000000
O     3.045000000    -4.331000000     1.162000000
H     2.608000000    -3.803000000     1.831000000
H     2.889000000    -5.236000000     1.433000000
O     1.325000000    -0.507000000     5.206000000
H     2.079000000     0.057000000     5.378000000
H     0.671000000     0.077000000     4.822000000
O    -5.707000000     0.141000000    -0.368000000
H    -5.396000000    -0.385000000    -1.105000000
H    -4.944000000     0.655000000    -0.103000000
O     1.996000000     2.645000000    -3.892000000
H     1.946000000     2.739000000    -2.941000000
H     1.770000000     1.729000000    -4.055000000
O     4.532000000    -1.305000000     0.874000000
H     3.672000000    -1.377000000     0.461000000
H     4.489000000    -1.899000000     1.623000000
O     1.491000000     4.207000000     1.628000000
H     1.441000000     4.678000000     2.460000000
H     0.696000000     3.675000000     1.606000000
O     4.508000000    -2.697000000     3.371000000
H     4.583000000    -2.956000000     4.290000000
H     3.570000000    -2.748000000     3.185000000
O     1.357000000     2.656000000     7.767000000
H     1.679000000     2.393000000     6.905000000
H     0.428000000     2.838000000     7.631000000
O     6.066000000     2.840000000    -1.858000000
H     5.894000000     2.372000000    -1.041000000
H     6.318000000     2.155000000    -2.477000000
O    -1.470000000     2.640000000     0.064000000
H    -0.829000000     1.930000000     0.019000000
H    -2.260000000     2.228000000     0.413000000
O    -0.867000000    -4.445000000    -2.876000000
H    -1.290000000    -3.738000000    -2.388000000
H    -1.415000000    -4.562000000    -3.651000000
O    -4.185000000    -0.970000000    -5.073000000
H    -3.648000000    -1.728000000    -5.306000000
H    -3.637000000    -0.465000000    -4.471000000
O    -1.571000000    -7.408000000    -3.313000000
H    -1.363000000    -7.699000000    -4.200000000
H    -1.279000000    -6.497000000    -3.284000000
O     4.295000000     3.618000000     1.770000000
H     3.343000000     3.681000000     1.688000000
H     4.447000000     3.503000000     2.708000000
O    -4.764000000    -1.650000000    -2.051000000
H    -3.906000000    -2.069000000    -1.991000000
H    -5.299000000    -2.267000000    -2.550000000
O     1.800000000    -2.690000000     3.138000000
H     0.895000000    -3.001000000     3.120000000
H     1.819000000    -2.051000000     3.850000000
O    -2.660000000     3.709000000    -2.219000000
H    -2.575000000     3.050000000    -2.908000000
H    -2.122000000     3.375000000    -1.501000000
O     0.357000000     4.878000000    -5.336000000
H    -0.060000000     5.066000000    -4.496000000
H     0.946000000     4.146000000    -5.152000000
O     3.175000000    -1.697000000    -2.913000000
H     2.785000000    -1.712000000    -2.039000000
H     3.622000000    -2.539000000    -2.991000000
O     1.778000000     4.287000000    -1.153000000
H     1.859000000     5.106000000    -1.641000000
H     1.921000000     4.537000000    -0.240000000
O     1.834000000    -0.057000000    -4.692000000
H     2.327000000    -0.662000000    -4.138000000
H     2.409000000     0.107000000    -5.439000000
O    -3.732000000     1.512000000     1.092000000
H    -4.453000000     2.028000000     1.453000000
H    -3.667000000     0.753000000     1.671000000
O    -3.492000000    -4.554000000     2.661000000
H    -3.534000000    -4.682000000     1.713000000
H    -3.888000000    -5.345000000     3.027000000
O    -1.522000000     0.887000000     4.175000000
H    -2.000000000     0.128000000     3.840000000
H    -2.009000000     1.150000000     4.956000000
O    -0.565000000    -4.073000000     3.486000000
H    -0.406000000    -4.567000000     4.291000000
H    -1.188000000    -4.609000000     2.996000000
O    -2.307000000     1.411000000    -7.563000000
H    -2.029000000     0.777000000    -6.902000000
H    -1.503000000     1.640000000    -8.029000000
O     4.142000000     4.363000000    -4.449000000
H     3.470000000     3.797000000    -4.068000000
H     4.603000000     4.730000000    -3.694000000
O    -2.065000000    -2.907000000    -5.096000000
H    -1.528000000    -2.570000000    -5.813000000
H    -1.847000000    -2.348000000    -4.350000000
O     2.074000000    -1.819000000    -0.337000000
H     2.175000000    -2.456000000     0.370000000
H     1.235000000    -1.394000000    -0.159000000
O     4.811000000    -0.140000000     6.166000000
H     5.153000000     0.277000000     5.375000000
H     4.859000000    -1.078000000     5.983000000
O     6.038000000     1.425000000     0.689000000
H     5.351000000     2.086000000     0.774000000
H     5.572000000     0.589000000     0.725000000
O    -0.209000000     3.205000000     3.459000000
H    -0.418000000     3.921000000     4.060000000
H    -0.722000000     2.464000000     3.782000000
O    -4.568000000    -4.807000000    -3.918000000
H    -5.458000000    -4.520000000    -3.711000000
H    -4.302000000    -4.252000000    -4.651000000
O     6.279000000     1.280000000     3.832000000
H     6.331000000     0.964000000     2.930000000
H     7.001000000     1.904000000     3.909000000
O    -2.696000000    -2.328000000     3.793000000
H    -3.153000000    -3.121000000     3.512000000
H    -1.793000000    -2.611000000     3.940000000
O     1.936000000     2.032000000     5.250000000
H     2.799000000     2.300000000     4.936000000
H     1.320000000     2.479000000     4.669000000
O    -2.838000000    -4.441000000    -0.346000000
H    -2.568000000    -3.741000000    -0.940000000
H    -2.028000000    -4.913000000    -0.148000000
