158
-3047.73316
C    -1.064000000     1.051000000    -0.131000000
H    -1.689000000     1.940000000    -0.172000000
C    -0.219000000     0.794000000     0.947000000
H    -0.216000000     1.507000000     1.767000000
C     0.711000000    -0.189000000     0.993000000
H     1.215000000    -0.515000000     1.936000000
C     0.754000000    -1.058000000    -0.062000000
H     1.462000000    -1.879000000     0.014000000
C     0.073000000    -0.851000000    -1.192000000
H     0.131000000    -1.527000000    -2.041000000
C    -0.889000000     0.205000000    -1.266000000
C    -1.741000000     0.391000000    -2.490000000
O    -2.334000000     1.448000000    -2.671000000
O    -1.970000000    -0.492000000    -3.304000000
O     4.526000000    -0.902000000    -0.676000000
H     4.384000000     0.041000000    -0.595000000
H     3.984000000    -1.286000000     0.013000000
O     2.007000000     3.476000000     4.292000000
H     1.349000000     2.781000000     4.268000000
H     1.814000000     4.015000000     3.525000000
O    -3.589000000     0.778000000    -6.970000000
H    -3.171000000     1.201000000    -6.220000000
H    -4.163000000     1.451000000    -7.335000000
O    -4.422000000     2.020000000    -1.012000000
H    -3.533000000     1.974000000    -1.364000000
H    -4.936000000     1.450000000    -1.584000000
O    -0.642000000    -5.583000000    -3.292000000
H    -1.592000000    -5.637000000    -3.190000000
H    -0.479000000    -5.885000000    -4.185000000
O     1.716000000     6.107000000    -0.977000000
H     1.008000000     5.492000000    -0.786000000
H     2.091000000     5.793000000    -1.800000000
O     3.803000000    -1.780000000     7.343000000
H     3.418000000    -1.929000000     6.479000000
H     3.057000000    -1.574000000     7.905000000
O     2.044000000    -0.438000000     5.084000000
H     2.040000000     0.287000000     5.709000000
H     1.118000000    -0.642000000     4.949000000
O    -0.950000000    -2.372000000    -4.944000000
H    -1.255000000    -1.675000000    -4.364000000
H    -1.641000000    -3.033000000    -4.908000000
O    -3.985000000    -0.408000000     0.953000000
H    -4.470000000     0.415000000     0.882000000
H    -4.024000000    -0.785000000     0.074000000
O     1.245000000    -0.990000000    -4.397000000
H     0.581000000    -1.634000000    -4.642000000
H     0.943000000    -0.172000000    -4.791000000
O     6.808000000    -3.289000000     0.623000000
H     6.784000000    -3.845000000     1.402000000
H     5.946000000    -2.873000000     0.600000000
O    -0.476000000    -1.578000000     4.841000000
H    -1.006000000    -1.601000000     5.637000000
H    -1.091000000    -1.782000000     4.137000000
O    -0.461000000     3.330000000    -3.030000000
H    -0.778000000     3.997000000    -2.421000000
H    -1.039000000     2.581000000    -2.886000000
O    -5.751000000    -3.945000000    -1.464000000
H    -5.112000000    -3.233000000    -1.507000000
H    -6.526000000    -3.547000000    -1.069000000
O    -3.756000000     2.305000000    -4.760000000
H    -4.602000000     1.975000000    -4.455000000
H    -3.121000000     1.941000000    -4.143000000
O     2.070000000    -3.680000000    -6.029000000
H     3.003000000    -3.727000000    -5.823000000
H     1.693000000    -3.165000000    -5.316000000
O    -2.213000000    -1.390000000     2.628000000
H    -1.376000000    -1.142000000     2.234000000
H    -2.847000000    -0.784000000     2.244000000
O     3.985000000    -0.447000000    -4.352000000
H     3.150000000    -0.699000000    -3.958000000
H     4.304000000     0.268000000    -3.800000000
O    -1.468000000     5.002000000    -0.746000000
H    -2.401000000     5.022000000    -0.961000000
H    -1.433000000     5.207000000     0.188000000
O    -3.601000000     5.198000000    -5.751000000
H    -3.702000000     4.248000000    -5.804000000
H    -3.224000000     5.446000000    -6.596000000
O     5.292000000     3.297000000     0.587000000
H     4.481000000     3.072000000     0.132000000
H     5.857000000     3.660000000    -0.095000000
O     0.184000000     1.670000000    -5.286000000
H    -0.116000000     2.247000000    -4.584000000
H    -0.346000000     1.918000000    -6.044000000
O     2.449000000     2.314000000     0.322000000
H     1.896000000     1.626000000     0.693000000
H     2.189000000     2.360000000    -0.598000000
O    -4.449000000    -0.995000000    -4.398000000
H    -3.573000000    -0.611000000    -4.367000000
H    -4.386000000    -1.683000000    -5.061000000
O     6.500000000     0.840000000     2.597000000
H     5.925000000     0.444000000     3.252000000
H     5.986000000     1.559000000     2.230000000
O    -5.915000000     0.717000000    -2.990000000
H    -5.323000000     0.082000000    -3.393000000
H    -6.775000000     0.511000000    -3.357000000
O     0.876000000    -4.028000000    -1.548000000
H     0.197000000    -3.534000000    -1.089000000
H     0.421000000    -4.428000000    -2.290000000
O    -3.820000000    -2.053000000    -1.514000000
H    -3.130000000    -2.586000000    -1.119000000
H    -3.376000000    -1.560000000    -2.205000000
O    -3.361000000     4.863000000    -2.986000000
H    -3.583000000     3.936000000    -2.900000000
H    -3.582000000     5.079000000    -3.892000000
O     4.571000000    -0.369000000     3.859000000
H     3.664000000    -0.484000000     4.143000000
H     4.769000000    -1.163000000     3.363000000
O     1.243000000    -3.282000000     3.144000000
H     0.650000000    -4.012000000     2.968000000
H     0.840000000    -2.819000000     3.879000000
O    -3.028000000    -1.830000000    -7.473000000
H    -3.018000000    -0.919000000    -7.179000000
H    -3.713000000    -1.859000000    -8.140000000
O     5.656000000    -4.117000000    -2.386000000
H     6.466000000    -3.613000000    -2.314000000
H     5.287000000    -4.106000000    -1.503000000
O     4.932000000     0.583000000     6.489000000
H     4.946000000     0.259000000     5.588000000
H     4.648000000    -0.168000000     7.010000000
O    -4.118000000     4.416000000    -0.059000000
H    -4.596000000     4.303000000     0.763000000
H    -4.046000000     3.531000000    -0.418000000
O     1.628000000     1.712000000    -2.210000000
H     1.240000000     2.216000000    -2.925000000
H     1.263000000     0.833000000    -2.310000000
O    -2.107000000    -3.676000000     0.335000000
H    -1.728000000    -3.077000000     0.978000000
H    -1.706000000    -4.523000000     0.530000000
O     2.973000000    -5.888000000    -0.695000000
H     2.439000000    -5.133000000    -0.944000000
H     2.472000000    -6.646000000    -0.998000000
O     4.800000000    -5.154000000     1.189000000
H     4.165000000    -5.588000000     0.619000000
H     5.121000000    -5.850000000     1.763000000
O     1.546000000     4.817000000     1.947000000
H     1.919000000     4.077000000     1.469000000
H     2.004000000     5.583000000     1.599000000
O    -0.492000000     2.679000000     3.979000000
H    -1.333000000     2.224000000     4.033000000
H    -0.509000000     3.300000000     4.706000000
O    -1.056000000     5.317000000     2.628000000
H    -1.201000000     4.372000000     2.587000000
H    -0.139000000     5.430000000     2.376000000
O     4.018000000    -2.619000000     2.366000000
H     4.269000000    -3.542000000     2.396000000
H     3.094000000    -2.614000000     2.613000000
O    -0.195000000    -1.675000000    -7.911000000
H    -1.084000000    -1.966000000    -7.709000000
H     0.356000000    -2.433000000    -7.715000000
O     1.418000000     1.382000000     7.152000000
H     1.676000000     1.558000000     8.057000000
H     1.426000000     2.240000000     6.729000000
O    -0.899000000    -4.890000000     2.997000000
H    -1.239000000    -5.521000000     2.363000000
H    -1.559000000    -4.867000000     3.690000000
O    -2.655000000     0.981000000     4.844000000
H    -2.861000000     0.132000000     4.453000000
H    -2.455000000     0.781000000     5.758000000
