158
-3065.02927
C    -0.498000000    -0.960000000    -0.976000000
H    -0.830000000    -1.815000000    -1.561000000
C    -0.699000000    -1.050000000     0.419000000
H    -1.176000000    -1.848000000     0.980000000
C    -0.147000000    -0.048000000     1.209000000
H    -0.298000000    -0.049000000     2.317000000
C     0.518000000     1.105000000     0.608000000
H     0.893000000     1.873000000     1.280000000
C     0.692000000     1.096000000    -0.796000000
H     1.138000000     1.978000000    -1.248000000
C     0.184000000     0.071000000    -1.581000000
C     0.236000000     0.046000000    -3.079000000
O     0.796000000     0.945000000    -3.645000000
O    -0.192000000    -0.880000000    -3.776000000
O     0.001000000    -6.519000000     1.248000000
H     0.741000000    -6.190000000     1.757000000
H     0.048000000    -6.039000000     0.420000000
O    -1.201000000     0.704000000     5.247000000
H    -0.668000000    -0.084000000     5.144000000
H    -0.564000000     1.413000000     5.342000000
O    -4.056000000     0.579000000    -5.594000000
H    -4.860000000     0.717000000    -6.096000000
H    -3.874000000    -0.356000000    -5.686000000
O    -0.445000000    -5.355000000    -4.190000000
H    -0.535000000    -5.762000000    -5.051000000
H    -0.889000000    -4.512000000    -4.275000000
O    -1.847000000    -3.115000000    -4.201000000
H    -1.177000000    -2.436000000    -4.119000000
H    -2.446000000    -2.950000000    -3.474000000
O     2.781000000    -3.319000000     6.180000000
H     2.986000000    -4.234000000     5.987000000
H     3.157000000    -2.830000000     5.448000000
O     4.194000000     0.908000000    -1.162000000
H     3.729000000     0.570000000    -1.927000000
H     4.892000000     1.451000000    -1.527000000
O     0.998000000     5.323000000    -2.118000000
H     0.272000000     5.431000000    -1.504000000
H     0.698000000     4.649000000    -2.728000000
O    -4.053000000    -2.771000000    -2.692000000
H    -4.956000000    -2.978000000    -2.936000000
H    -3.830000000    -3.420000000    -2.025000000
O     0.444000000    -1.387000000     4.639000000
H     0.116000000    -2.218000000     4.294000000
H     1.389000000    -1.515000000     4.714000000
O    -3.593000000    -2.061000000    -5.944000000
H    -2.958000000    -2.013000000    -6.659000000
H    -3.184000000    -2.639000000    -5.300000000
O    -4.151000000     0.362000000     4.921000000
H    -4.343000000     0.662000000     4.032000000
H    -3.215000000     0.530000000     5.034000000
O    -4.870000000    -0.247000000    -1.970000000
H    -5.328000000    -0.341000000    -1.135000000
H    -4.570000000    -1.132000000    -2.179000000
O     2.157000000    -5.284000000    -3.444000000
H     2.251000000    -4.338000000    -3.558000000
H     1.331000000    -5.496000000    -3.879000000
O    -3.411000000     1.912000000    -3.190000000
H    -3.288000000     1.488000000    -4.039000000
H    -3.811000000     1.238000000    -2.641000000
O     2.211000000     3.209000000    -6.263000000
H     2.232000000     3.087000000    -7.212000000
H     1.310000000     3.474000000    -6.076000000
O    -0.231000000    -3.932000000     3.551000000
H    -0.530000000    -4.714000000     4.015000000
H     0.535000000    -4.224000000     3.058000000
O    -2.573000000     2.798000000    -5.881000000
H    -3.144000000     2.032000000    -5.937000000
H    -1.690000000     2.448000000    -6.000000000
O     3.708000000     0.491000000     5.138000000
H     2.777000000     0.692000000     5.232000000
H     4.014000000     1.087000000     4.454000000
O    -0.499000000     0.751000000    -6.143000000
H    -1.155000000     0.070000000    -5.997000000
H     0.033000000     0.746000000    -5.347000000
O     2.344000000    -4.888000000     2.566000000
H     2.602000000    -5.712000000     2.979000000
H     2.949000000    -4.239000000     2.926000000
O    -0.879000000    -2.322000000     7.343000000
H    -0.295000000    -1.595000000     7.129000000
H    -0.302000000    -2.994000000     7.706000000
O     4.422000000    -2.598000000    -4.912000000
H     4.352000000    -1.800000000    -4.388000000
H     3.560000000    -2.696000000    -5.317000000
O    -0.675000000    -5.913000000    -1.411000000
H    -0.402000000    -6.811000000    -1.221000000
H    -0.567000000    -5.826000000    -2.358000000
O     1.143000000     2.076000000     6.044000000
H     1.348000000     1.825000000     6.945000000
H     1.620000000     2.895000000     5.909000000
O     4.384000000     4.074000000    -4.791000000
H     3.933000000     4.446000000    -4.033000000
H     3.688000000     3.666000000    -5.307000000
O    -5.558000000    -2.099000000     2.208000000
H    -4.783000000    -2.656000000     2.287000000
H    -6.222000000    -2.537000000     2.740000000
O    -0.280000000     3.432000000    -3.574000000
H    -1.124000000     3.006000000    -3.725000000
H     0.351000000     2.712000000    -3.551000000
O     2.507000000    -1.808000000     1.140000000
H     1.868000000    -1.099000000     1.206000000
H     2.103000000    -2.441000000     0.546000000
O    -2.791000000    -2.287000000     5.177000000
H    -2.001000000    -2.360000000     5.712000000
H    -3.090000000    -1.388000000     5.315000000
O    -2.687000000    -3.787000000    -0.478000000
H    -3.208000000    -4.038000000     0.285000000
H    -2.115000000    -4.538000000    -0.635000000
O     4.137000000     1.897000000     2.788000000
H     3.595000000     2.491000000     2.268000000
H     4.462000000     1.256000000     2.156000000
O     1.202000000     5.815000000     4.378000000
H     1.443000000     5.507000000     3.505000000
H     0.273000000     6.035000000     4.307000000
O     1.841000000    -2.604000000    -2.931000000
H     2.536000000    -1.947000000    -2.881000000
H     1.084000000    -2.126000000    -3.268000000
O     3.824000000    -2.752000000     3.429000000
H     3.614000000    -2.503000000     2.529000000
H     4.712000000    -2.424000000     3.567000000
O     3.258000000     0.111000000    -3.748000000
H     3.438000000     0.252000000    -4.678000000
H     2.396000000     0.504000000    -3.608000000
O    -1.759000000     3.306000000     4.782000000
H    -1.451000000     3.540000000     3.906000000
H    -1.716000000     2.350000000     4.804000000
O     1.781000000     4.722000000     1.729000000
H     2.467000000     5.390000000     1.700000000
H     2.153000000     3.977000000     1.257000000
O    -2.982000000    -3.356000000     2.610000000
H    -2.098000000    -3.700000000     2.477000000
H    -2.942000000    -2.913000000     3.458000000
O     3.864000000     0.813000000    -6.494000000
H     3.139000000     1.427000000    -6.375000000
H     3.594000000     0.265000000    -7.231000000
O     3.555000000     4.897000000    -2.424000000
H     3.778000000     5.227000000    -1.554000000
H     2.677000000     5.240000000    -2.593000000
O    -4.573000000     2.108000000     2.747000000
H    -3.887000000     2.140000000     2.080000000
H    -5.121000000     2.871000000     2.565000000
O    -1.113000000     4.045000000     2.242000000
H    -1.282000000     4.716000000     1.581000000
H    -0.158000000     3.978000000     2.276000000
O    -1.163000000     5.746000000    -4.259000000
H    -0.688000000     4.919000000    -4.167000000
H    -1.837000000     5.711000000    -3.581000000
O     1.134000000    -3.541000000    -0.492000000
H     0.228000000    -3.837000000    -0.579000000
H     1.399000000    -3.314000000    -1.383000000
O     5.164000000    -0.203000000     1.164000000
H     4.615000000     0.202000000     0.493000000
H     4.848000000    -1.105000000     1.220000000
O    -2.567000000     2.030000000     0.660000000
H    -1.974000000     1.468000000     0.161000000
H    -2.047000000     2.321000000     1.409000000
O     3.448000000     3.051000000     0.420000000
H     3.129000000     2.230000000     0.044000000
H     4.302000000     3.186000000     0.009000000
