158
-3041.75255
C    -0.413000000     1.367000000     0.382000000
H    -0.670000000     2.357000000     0.751000000
C     0.588000000     0.601000000     1.026000000
H     1.075000000     0.866000000     1.961000000
C     0.884000000    -0.648000000     0.536000000
H     1.635000000    -1.334000000     1.010000000
C     0.305000000    -1.117000000    -0.631000000
H     0.583000000    -2.053000000    -1.107000000
C    -0.697000000    -0.390000000    -1.217000000
H    -1.258000000    -0.852000000    -2.025000000
C    -1.095000000     0.918000000    -0.752000000
C    -2.324000000     1.661000000    -1.334000000
O    -2.754000000     2.697000000    -0.859000000
O    -2.730000000     1.289000000    -2.407000000
O     5.751000000    -0.989000000    -0.574000000
H     4.990000000    -0.578000000    -0.984000000
H     5.386000000    -1.706000000    -0.056000000
O     1.851000000     2.741000000     4.931000000
H     0.923000000     2.622000000     5.133000000
H     1.874000000     2.882000000     3.984000000
O     1.923000000    -3.915000000     1.482000000
H     1.366000000    -4.343000000     0.831000000
H     1.409000000    -3.937000000     2.289000000
O    -4.630000000     4.304000000    -1.752000000
H    -4.079000000     3.569000000    -1.484000000
H    -4.335000000     5.034000000    -1.207000000
O    -0.545000000    -5.266000000    -0.572000000
H    -1.102000000    -6.006000000    -0.332000000
H    -0.489000000    -5.308000000    -1.527000000
O     3.506000000     3.155000000     0.296000000
H     3.212000000     2.818000000    -0.550000000
H     4.453000000     3.016000000     0.293000000
O     4.201000000    -0.898000000     4.341000000
H     4.049000000    -0.112000000     4.865000000
H     3.345000000    -1.324000000     4.294000000
O    -1.371000000     0.183000000    -4.571000000
H    -1.878000000     0.532000000    -3.838000000
H    -1.143000000     0.953000000    -5.092000000
O    -4.491000000     1.901000000     1.573000000
H    -4.150000000     2.270000000     0.758000000
H    -5.132000000     2.543000000     1.878000000
O    -2.315000000    -2.191000000    -5.108000000
H    -3.207000000    -2.012000000    -4.810000000
H    -1.853000000    -1.362000000    -4.990000000
O     4.798000000    -3.621000000     4.037000000
H     4.755000000    -2.665000000     4.017000000
H     5.672000000    -3.829000000     3.709000000
O    -0.914000000    -1.751000000     5.377000000
H    -1.395000000    -1.037000000     5.796000000
H    -1.477000000    -2.028000000     4.655000000
O    -0.743000000     3.822000000    -2.614000000
H    -1.083000000     4.667000000    -2.908000000
H    -1.522000000     3.278000000    -2.495000000
O    -3.746000000    -0.706000000     1.055000000
H    -4.100000000     0.092000000     1.445000000
H    -3.014000000    -0.405000000     0.516000000
O    -3.321000000     2.668000000    -4.743000000
H    -3.300000000     2.304000000    -3.858000000
H    -4.222000000     2.969000000    -4.857000000
O     0.522000000    -6.003000000    -3.946000000
H     1.012000000    -5.180000000    -3.953000000
H    -0.378000000    -5.744000000    -3.747000000
O    -2.420000000     0.470000000     3.762000000
H    -3.373000000     0.543000000     3.720000000
H    -2.222000000    -0.354000000     3.317000000
O     2.293000000     5.660000000    -0.263000000
H     2.077000000     5.107000000    -1.014000000
H     3.230000000     5.523000000    -0.127000000
O     5.077000000    -2.080000000    -3.562000000
H     4.841000000    -1.688000000    -4.402000000
H     4.692000000    -1.497000000    -2.908000000
O     0.365000000    -4.376000000     3.555000000
H    -0.585000000    -4.370000000     3.677000000
H     0.600000000    -5.304000000     3.559000000
O    -1.494000000     4.883000000     0.136000000
H    -0.893000000     4.711000000    -0.590000000
H    -2.226000000     4.284000000    -0.012000000
O    -4.342000000     2.225000000    -7.281000000
H    -4.193000000     2.273000000    -6.337000000
H    -4.145000000     3.106000000    -7.599000000
O     1.389000000     1.052000000    -3.674000000
H     0.625000000     0.488000000    -3.791000000
H     1.413000000     1.590000000    -4.465000000
O     3.236000000    -0.497000000    -1.673000000
H     2.458000000    -0.724000000    -1.165000000
H     2.896000000    -0.039000000    -2.441000000
O     2.464000000    -3.498000000    -3.294000000
H     3.328000000    -3.091000000    -3.361000000
H     2.586000000    -4.220000000    -2.678000000
O    -5.377000000    -2.120000000    -2.988000000
H    -6.194000000    -2.241000000    -3.472000000
H    -5.332000000    -1.178000000    -2.826000000
O    -4.757000000     5.340000000    -4.350000000
H    -4.692000000     4.957000000    -3.475000000
H    -3.867000000     5.626000000    -4.554000000
O    -5.373000000     0.537000000    -2.055000000
H    -4.465000000     0.703000000    -2.310000000
H    -5.862000000     1.275000000    -2.418000000
O     5.880000000     1.795000000     0.381000000
H     5.837000000     2.167000000    -0.500000000
H     6.201000000     0.903000000     0.249000000
O     4.382000000    -2.957000000     1.130000000
H     4.595000000    -3.701000000     0.566000000
H     3.563000000    -3.208000000     1.557000000
O    -2.807000000     4.797000000     3.400000000
H    -2.160000000     4.096000000     3.316000000
H    -3.394000000     4.499000000     4.094000000
O    -1.555000000     6.343000000    -2.959000000
H    -2.429000000     6.468000000    -2.589000000
H    -0.968000000     6.777000000    -2.339000000
O     5.957000000    -1.115000000     2.358000000
H     5.459000000    -0.855000000     3.133000000
H     5.373000000    -1.707000000     1.885000000
O     1.778000000    -2.143000000     4.580000000
H     1.692000000    -2.957000000     4.084000000
H     0.880000000    -1.914000000     4.821000000
O     4.858000000     2.138000000     3.320000000
H     5.058000000     1.786000000     2.453000000
H     3.903000000     2.202000000     3.338000000
O    -3.641000000     6.778000000    -1.025000000
H    -3.681000000     6.642000000    -0.078000000
H    -4.514000000     7.095000000    -1.258000000
O     2.172000000     3.605000000    -2.423000000
H     1.269000000     3.363000000    -2.630000000
H     2.702000000     3.105000000    -3.043000000
O    -2.957000000    -3.613000000     0.700000000
H    -2.811000000    -2.881000000     1.299000000
H    -2.080000000    -3.951000000     0.517000000
O     3.510000000    -5.235000000    -1.463000000
H     3.463000000    -5.584000000    -0.573000000
H     3.631000000    -6.006000000    -2.017000000
O     6.130000000    -4.888000000    -0.820000000
H     5.212000000    -4.906000000    -1.091000000
H     6.299000000    -5.770000000    -0.487000000
O    -1.060000000     2.283000000    -6.492000000
H    -0.986000000     2.649000000    -7.374000000
H    -1.853000000     2.681000000    -6.133000000
O     1.587000000     3.419000000     2.382000000
H     2.213000000     3.314000000     1.665000000
H     1.049000000     4.167000000     2.122000000
O     0.048000000     5.761000000     2.013000000
H    -0.424000000     6.515000000     2.365000000
H    -0.586000000     5.327000000     1.442000000
O     1.634000000    -6.674000000     2.769000000
H     2.043000000    -6.441000000     1.936000000
H     1.646000000    -7.631000000     2.783000000
O    -1.743000000    -4.533000000    -3.198000000
H    -2.622000000    -4.901000000    -3.106000000
H    -1.884000000    -3.670000000    -3.588000000
O     3.551000000     1.186000000     6.156000000
H     3.837000000     1.670000000     6.931000000
H     2.888000000     1.748000000     5.754000000
O    -0.785000000     2.454000000     4.273000000
H    -1.383000000     1.710000000     4.193000000
H    -0.199000000     2.372000000     3.521000000
O     2.507000000    -1.438000000     7.074000000
H     3.047000000    -0.673000000     6.876000000
H     2.211000000    -1.750000000     6.219000000
