158
-3045.69263
C    -0.934000000     0.929000000    -0.653000000
H    -1.606000000     1.695000000    -1.030000000
C    -0.870000000     0.689000000     0.715000000
H    -1.448000000     1.281000000     1.420000000
C     0.063000000    -0.144000000     1.246000000
H     0.114000000    -0.334000000     2.343000000
C     0.939000000    -0.870000000     0.351000000
H     1.690000000    -1.609000000     0.619000000
C     0.819000000    -0.651000000    -1.036000000
H     1.497000000    -1.313000000    -1.569000000
C    -0.120000000     0.256000000    -1.535000000
C    -0.245000000     0.378000000    -2.989000000
O    -0.785000000     1.325000000    -3.505000000
O     0.272000000    -0.462000000    -3.690000000
O     4.135000000    -2.862000000    -0.028000000
H     4.046000000    -1.968000000     0.300000000
H     4.804000000    -3.258000000     0.531000000
O     4.316000000    -0.518000000    -6.789000000
H     3.776000000     0.058000000    -6.249000000
H     4.433000000    -1.305000000    -6.257000000
O    -2.848000000    -1.112000000    -4.357000000
H    -2.127000000    -0.617000000    -4.748000000
H    -3.321000000    -1.476000000    -5.105000000
O     0.926000000     5.782000000    -1.691000000
H     0.113000000     5.296000000    -1.828000000
H     1.185000000     5.569000000    -0.795000000
O     2.548000000     0.614000000     2.866000000
H     3.250000000     0.410000000     3.484000000
H     1.748000000     0.573000000     3.390000000
O    -0.523000000    -1.170000000    -6.126000000
H    -0.251000000    -0.652000000    -5.369000000
H     0.119000000    -1.879000000    -6.175000000
O    -3.670000000    -1.154000000    -1.677000000
H    -4.419000000    -1.710000000    -1.890000000
H    -3.167000000    -1.108000000    -2.490000000
O     2.846000000    -0.089000000    -3.492000000
H     1.891000000    -0.055000000    -3.552000000
H     3.152000000     0.328000000    -4.297000000
O    -4.401000000    -4.651000000     2.207000000
H    -3.699000000    -4.010000000     2.315000000
H    -4.465000000    -4.781000000     1.261000000
O     3.039000000    -1.911000000     4.994000000
H     3.432000000    -2.587000000     4.442000000
H     2.100000000    -1.974000000     4.817000000
O    -1.160000000     3.920000000    -2.492000000
H    -2.033000000     4.059000000    -2.124000000
H    -1.205000000     3.053000000    -2.894000000
O     0.402000000     2.456000000    -5.759000000
H     0.440000000     2.167000000    -4.848000000
H     0.489000000     3.408000000    -5.712000000
O    -4.662000000     1.267000000     4.608000000
H    -4.845000000     1.257000000     5.547000000
H    -5.520000000     1.377000000     4.198000000
O    -4.268000000     1.589000000    -2.440000000
H    -5.196000000     1.795000000    -2.327000000
H    -4.202000000     0.657000000    -2.232000000
O    -1.545000000     4.602000000     2.813000000
H    -0.604000000     4.613000000     2.989000000
H    -1.636000000     5.035000000     1.965000000
O    -2.359000000    -2.527000000     2.592000000
H    -2.314000000    -1.707000000     3.084000000
H    -1.760000000    -3.115000000     3.052000000
O    -5.549000000     1.775000000     1.822000000
H    -4.929000000     1.111000000     1.519000000
H    -6.329000000     1.279000000     2.070000000
O    -0.091000000     5.050000000    -5.120000000
H    -0.862000000     5.260000000    -5.647000000
H    -0.438000000     4.890000000    -4.242000000
O    -0.962000000     3.561000000    -7.772000000
H    -1.711000000     3.246000000    -8.277000000
H    -0.714000000     2.817000000    -7.223000000
O     4.486000000    -1.983000000    -2.765000000
H     4.078000000    -2.129000000    -1.912000000
H     3.968000000    -1.283000000    -3.163000000
O    -0.442000000    -4.403000000    -5.361000000
H    -0.733000000    -4.009000000    -4.539000000
H    -1.154000000    -4.992000000    -5.610000000
O    -2.346000000     6.262000000    -0.609000000
H    -2.852000000     5.452000000    -0.656000000
H    -2.808000000     6.868000000    -1.189000000
O    -3.931000000     2.961000000    -7.132000000
H    -4.837000000     2.824000000    -6.854000000
H    -3.404000000     2.601000000    -6.419000000
O     1.574000000    -3.771000000    -1.352000000
H     2.025000000    -3.980000000    -2.170000000
H     2.277000000    -3.557000000    -0.739000000
O    -3.677000000     4.099000000    -1.094000000
H    -4.405000000     4.379000000    -0.539000000
H    -3.882000000     3.191000000    -1.317000000
O     3.635000000     1.883000000    -5.245000000
H     3.389000000     2.784000000    -5.039000000
H     4.462000000     1.963000000    -5.720000000
O     2.133000000     2.659000000     1.169000000
H     1.687000000     2.507000000     0.335000000
H     2.130000000     1.805000000     1.601000000
O    -3.229000000    -0.479000000    -7.229000000
H    -2.284000000    -0.421000000    -7.088000000
H    -3.328000000    -0.506000000    -8.180000000
O     2.270000000    -4.716000000    -4.714000000
H     2.461000000    -3.886000000    -5.150000000
H     1.333000000    -4.851000000    -4.857000000
O    -3.696000000    -0.207000000     1.140000000
H    -3.648000000    -0.455000000     0.217000000
H    -2.809000000    -0.345000000     1.471000000
O    -0.631000000    -3.150000000    -2.844000000
H    -0.044000000    -3.110000000    -2.089000000
H    -0.760000000    -2.236000000    -3.096000000
O    -4.418000000     5.274000000    -3.651000000
H    -4.478000000     5.972000000    -2.999000000
H    -4.405000000     4.467000000    -3.138000000
O     4.271000000    -0.122000000     0.875000000
H     3.758000000    -0.040000000     1.679000000
H     4.378000000     0.777000000     0.566000000
O     0.782000000    -5.047000000     5.737000000
H     1.465000000    -4.422000000     5.979000000
H    -0.035000000    -4.623000000     5.999000000
O     2.483000000    -4.820000000     2.894000000
H     1.634000000    -5.013000000     2.495000000
H     2.423000000    -5.190000000     3.775000000
O    -2.437000000     3.118000000     4.884000000
H    -2.203000000     3.889000000     4.368000000
H    -3.193000000     2.745000000     4.430000000
O     1.683000000     1.461000000    -8.018000000
H     1.245000000     1.620000000    -7.182000000
H     0.982000000     1.514000000    -8.669000000
O    -2.753000000     2.256000000    -4.917000000
H    -3.183000000     1.953000000    -4.117000000
H    -1.853000000     1.939000000    -4.841000000
O     3.188000000    -0.618000000     7.774000000
H     3.066000000    -0.622000000     6.825000000
H     4.131000000    -0.731000000     7.895000000
O     3.654000000     1.581000000    -1.495000000
H     3.867000000     2.385000000    -1.969000000
H     3.298000000     0.996000000    -2.164000000
O     0.311000000    -2.388000000     6.450000000
H     0.988000000    -1.715000000     6.518000000
H    -0.072000000    -2.432000000     7.326000000
O     4.263000000    -4.893000000    -2.833000000
H     4.290000000    -3.939000000    -2.762000000
H     3.597000000    -5.065000000    -3.499000000
O     0.371000000     1.627000000     4.673000000
H    -0.480000000     2.044000000     4.541000000
H     0.990000000     2.355000000     4.720000000
O     1.155000000     4.537000000     3.559000000
H     1.340000000     3.907000000     2.863000000
H     1.810000000     5.224000000     3.441000000
O     4.732000000    -3.764000000     3.756000000
H     5.373000000    -4.462000000     3.624000000
H     3.931000000    -4.093000000     3.349000000
O    -0.258000000    -5.543000000     0.214000000
H     0.293000000    -4.923000000    -0.264000000
H    -0.729000000    -6.021000000    -0.469000000
O    -2.443000000    -0.187000000     4.184000000
H    -3.163000000     0.443000000     4.151000000
H    -2.431000000    -0.489000000     5.093000000
O    -0.248000000     0.993000000     7.146000000
H    -1.008000000     0.586000000     6.730000000
H     0.305000000     1.271000000     6.416000000
