158
-3037.39986
C     0.483000000    -0.004000000    -1.409000000
H     0.943000000    -0.242000000    -2.365000000
C     1.217000000     0.389000000    -0.300000000
H     2.296000000     0.413000000    -0.434000000
C     0.621000000     0.572000000     0.947000000
H     1.124000000     0.910000000     1.775000000
C    -0.748000000     0.376000000     1.078000000
H    -1.187000000     0.564000000     2.054000000
C    -1.418000000    -0.211000000     0.004000000
H    -2.471000000    -0.464000000     0.091000000
C    -0.869000000    -0.385000000    -1.235000000
C    -1.646000000    -1.021000000    -2.386000000
O    -1.023000000    -1.344000000    -3.401000000
O    -2.831000000    -1.307000000    -2.284000000
O     5.030000000    -3.527000000     3.061000000
H     4.896000000    -2.840000000     3.713000000
H     5.933000000    -3.406000000     2.768000000
O    -5.195000000    -1.450000000     2.290000000
H    -5.881000000    -1.914000000     1.811000000
H    -4.407000000    -1.975000000     2.148000000
O    -6.798000000    -2.502000000     0.383000000
H    -7.684000000    -2.157000000     0.276000000
H    -6.567000000    -2.842000000    -0.481000000
O     4.434000000     0.672000000     2.394000000
H     4.162000000     1.434000000     1.882000000
H     5.315000000     0.889000000     2.697000000
O     1.255000000    -0.361000000    -4.942000000
H     0.800000000    -0.701000000    -4.172000000
H     0.737000000    -0.675000000    -5.684000000
O    -3.619000000    -2.602000000    -4.537000000
H    -3.290000000    -2.188000000    -3.739000000
H    -4.283000000    -3.219000000    -4.230000000
O     2.749000000     2.976000000     4.949000000
H     2.107000000     2.352000000     5.289000000
H     2.850000000     3.621000000     5.649000000
O    -3.071000000     3.095000000     4.270000000
H    -3.406000000     2.235000000     4.018000000
H    -2.220000000     3.157000000     3.836000000
O    -2.477000000    -1.529000000     5.060000000
H    -1.715000000    -1.922000000     4.635000000
H    -2.520000000    -1.954000000     5.916000000
O     4.436000000    -2.060000000     5.160000000
H     5.178000000    -1.506000000     5.405000000
H     3.805000000    -1.456000000     4.769000000
O     0.141000000    -2.711000000     1.010000000
H    -0.337000000    -3.200000000     0.341000000
H    -0.282000000    -1.852000000     1.028000000
O    -3.959000000     0.213000000     3.803000000
H    -4.554000000    -0.233000000     3.200000000
H    -3.511000000    -0.496000000     4.265000000
O     4.083000000     2.619000000     0.387000000
H     3.316000000     2.991000000    -0.049000000
H     4.495000000     2.069000000    -0.280000000
O     4.346000000     2.405000000    -3.423000000
H     4.158000000     1.913000000    -4.222000000
H     4.514000000     1.733000000    -2.762000000
O     2.488000000    -4.290000000     2.529000000
H     3.192000000    -3.730000000     2.857000000
H     2.091000000    -3.785000000     1.820000000
O    -4.219000000    -1.591000000    -7.004000000
H    -3.964000000    -1.678000000    -6.085000000
H    -4.817000000    -2.322000000    -7.157000000
O     2.557000000    -4.558000000    -2.161000000
H     1.889000000    -4.145000000    -2.708000000
H     2.402000000    -5.497000000    -2.260000000
O    -1.315000000     3.185000000    -0.686000000
H    -0.808000000     2.590000000    -0.134000000
H    -2.130000000     2.714000000    -0.860000000
O     0.136000000    -4.558000000    -7.077000000
H    -0.623000000    -4.437000000    -6.507000000
H     0.651000000    -5.241000000    -6.647000000
O    -3.990000000     4.527000000     2.166000000
H    -3.748000000     4.109000000     2.993000000
H    -3.227000000     5.057000000     1.934000000
O     0.158000000    -3.838000000    -3.253000000
H    -0.179000000    -2.942000000    -3.273000000
H    -0.293000000    -4.279000000    -3.973000000
O     3.440000000     0.763000000    -5.838000000
H     2.720000000     0.392000000    -5.329000000
H     4.201000000     0.235000000    -5.596000000
O    -4.536000000     1.967000000    -4.521000000
H    -3.651000000     1.678000000    -4.744000000
H    -4.766000000     1.456000000    -3.745000000
O     4.703000000     0.449000000    -1.633000000
H     4.735000000    -0.214000000    -0.943000000
H     5.236000000     0.086000000    -2.340000000
O    -7.490000000    -0.004000000    -4.182000000
H    -7.196000000     0.302000000    -5.040000000
H    -6.696000000    -0.019000000    -3.648000000
O    -5.980000000    -3.898000000    -1.767000000
H    -5.120000000    -4.215000000    -2.043000000
H    -6.601000000    -4.409000000    -2.285000000
O    -3.455000000    -5.095000000    -2.486000000
H    -3.779000000    -5.993000000    -2.550000000
H    -2.877000000    -4.994000000    -3.242000000
O    -1.364000000    -5.727000000     0.116000000
H    -1.378000000    -6.189000000    -0.722000000
H    -1.738000000    -4.867000000    -0.078000000
O     0.069000000    -1.969000000    -8.626000000
H    -0.211000000    -2.119000000    -7.723000000
H     0.997000000    -2.203000000    -8.631000000
O     3.026000000     5.215000000     3.427000000
H     2.869000000     4.398000000     3.900000000
H     3.637000000     5.700000000     3.982000000
O    -2.176000000     1.007000000    -5.326000000
H    -1.909000000     0.106000000    -5.506000000
H    -1.353000000     1.493000000    -5.268000000
O    -6.302000000     1.108000000    -0.109000000
H    -6.190000000     0.689000000     0.744000000
H    -5.637000000     1.796000000    -0.127000000
O    -2.810000000    -3.379000000    -0.502000000
H    -2.933000000    -4.043000000    -1.180000000
H    -3.102000000    -2.564000000    -0.909000000
O     3.439000000    -1.513000000     0.634000000
H     3.913000000    -0.923000000     1.220000000
H     2.520000000    -1.405000000     0.876000000
O    -5.150000000     0.342000000    -2.490000000
H    -5.405000000     0.631000000    -1.614000000
H    -4.409000000    -0.246000000    -2.342000000
O    -1.522000000    -5.548000000    -4.840000000
H    -1.534000000    -6.503000000    -4.910000000
H    -2.132000000    -5.251000000    -5.515000000
O     2.399000000    -0.342000000     4.327000000
H     2.965000000     0.246000000     3.826000000
H     1.727000000     0.229000000     4.696000000
O    -1.649000000     0.825000000     6.717000000
H    -2.151000000     1.218000000     7.431000000
H    -2.303000000     0.371000000     6.186000000
O    -1.475000000    -1.604000000    -5.838000000
H    -1.519000000    -1.538000000    -4.884000000
H    -2.249000000    -2.114000000    -6.078000000
O    -0.200000000    -2.853000000     3.971000000
H     0.264000000    -2.761000000     3.139000000
H    -0.876000000    -3.508000000     3.797000000
O    -0.947000000     3.282000000     2.720000000
H    -0.035000000     3.344000000     2.437000000
H    -1.383000000     4.016000000     2.286000000
O     1.814000000     3.903000000    -0.965000000
H     1.252000000     3.230000000    -1.350000000
H     2.157000000     4.387000000    -1.717000000
O     0.694000000    -2.263000000     6.465000000
H     0.422000000    -2.504000000     5.579000000
H     1.564000000    -2.650000000     6.562000000
O     0.121000000     1.420000000     4.720000000
H    -0.537000000     1.334000000     5.409000000
H    -0.303000000     1.957000000     4.050000000
O    -4.302000000     2.996000000    -0.169000000
H    -4.202000000     3.433000000     0.677000000
H    -4.308000000     3.709000000    -0.808000000
O    -2.990000000    -3.196000000     2.400000000
H    -2.546000000    -3.553000000     3.169000000
H    -2.399000000    -3.386000000     1.672000000
O     1.082000000     4.770000000     1.503000000
H     1.444000000     4.321000000     0.738000000
H     1.829000000     4.877000000     2.092000000
O     5.367000000     2.546000000     5.041000000
H     4.431000000     2.587000000     4.845000000
H     5.633000000     3.460000000     5.135000000
