158
-3056.58421
C     0.636000000    -1.221000000    -0.496000000
H     1.033000000    -2.211000000    -0.704000000
C    -0.411000000    -1.135000000     0.429000000
H    -0.754000000    -2.024000000     0.954000000
C    -0.992000000     0.038000000     0.758000000
H    -1.727000000     0.082000000     1.480000000
C    -0.502000000     1.204000000     0.138000000
H    -0.821000000     2.194000000     0.455000000
C     0.537000000     1.131000000    -0.799000000
H     0.881000000     2.029000000    -1.306000000
C     1.195000000    -0.073000000    -1.036000000
C     2.366000000    -0.151000000    -1.992000000
O     2.962000000     0.899000000    -2.241000000
O     2.685000000    -1.214000000    -2.519000000
O     0.060000000    -6.708000000     2.927000000
H     0.733000000    -6.045000000     3.082000000
H    -0.361000000    -6.435000000     2.112000000
O    -2.403000000    -5.489000000     3.736000000
H    -2.317000000    -4.667000000     4.220000000
H    -1.530000000    -5.879000000     3.769000000
O     7.158000000     2.775000000    -0.070000000
H     6.888000000     2.988000000    -0.964000000
H     6.636000000     2.006000000     0.161000000
O    -1.911000000     1.572000000     6.950000000
H    -1.563000000     1.131000000     6.176000000
H    -1.327000000     2.318000000     7.084000000
O     5.938000000    -2.102000000    -3.557000000
H     6.862000000    -1.897000000    -3.699000000
H     5.513000000    -1.248000000    -3.477000000
O    -1.329000000    -3.688000000    -1.708000000
H    -1.996000000    -3.124000000    -2.098000000
H    -0.506000000    -3.392000000    -2.098000000
O     5.573000000    -0.049000000    -0.701000000
H     5.593000000     0.292000000    -1.596000000
H     4.798000000    -0.610000000    -0.677000000
O    -1.557000000    -0.263000000    -2.646000000
H    -0.785000000     0.015000000    -2.153000000
H    -2.274000000     0.255000000    -2.280000000
O     4.150000000     2.972000000    -1.024000000
H     3.689000000     2.291000000    -1.514000000
H     4.882000000     3.219000000    -1.589000000
O     2.106000000     6.696000000    -3.005000000
H     2.152000000     6.243000000    -2.163000000
H     1.627000000     6.094000000    -3.574000000
O    -4.240000000    -0.370000000    -1.027000000
H    -4.140000000    -0.658000000    -0.119000000
H    -4.826000000    -1.016000000    -1.420000000
O    -4.116000000     1.698000000    -2.851000000
H    -4.013000000     0.961000000    -2.248000000
H    -4.442000000     2.412000000    -2.303000000
O     1.999000000    -5.823000000    -1.371000000
H     2.952000000    -5.856000000    -1.459000000
H     1.671000000    -6.258000000    -2.158000000
O     0.123000000     0.855000000     5.044000000
H    -0.276000000     0.011000000     4.833000000
H     1.060000000     0.668000000     5.106000000
O    -3.981000000     2.572000000    -0.009000000
H    -4.310000000     2.333000000     0.857000000
H    -3.353000000     1.882000000    -0.225000000
O    -0.021000000     5.069000000    -4.017000000
H    -0.483000000     5.417000000    -4.780000000
H    -0.675000000     4.538000000    -3.563000000
O    -4.425000000     5.123000000    -0.836000000
H    -3.663000000     5.544000000    -1.234000000
H    -4.170000000     4.205000000    -0.742000000
O     0.663000000     3.607000000     3.983000000
H     0.111000000     2.861000000     4.217000000
H     1.491000000     3.443000000     4.436000000
O     2.722000000    -0.918000000    -5.132000000
H     2.530000000    -1.782000000    -5.496000000
H     2.821000000    -1.071000000    -4.192000000
O     0.225000000    -3.898000000     4.425000000
H     0.381000000    -4.106000000     5.346000000
H     1.053000000    -4.104000000     3.990000000
O     5.354000000     0.494000000    -3.237000000
H     5.299000000     1.123000000    -3.956000000
H     4.448000000     0.225000000    -3.085000000
O    -0.576000000    -5.802000000    -0.082000000
H     0.314000000    -5.875000000    -0.426000000
H    -0.964000000    -5.078000000    -0.572000000
O    -4.682000000     1.865000000     2.734000000
H    -5.195000000     2.238000000     3.451000000
H    -4.483000000     0.974000000     3.021000000
O     4.472000000     4.882000000    -4.550000000
H     4.383000000     5.617000000    -3.943000000
H     3.872000000     4.218000000    -4.210000000
O     3.285000000    -0.283000000    -7.754000000
H     3.525000000    -1.104000000    -8.185000000
H     3.322000000    -0.485000000    -6.818000000
O    -4.240000000    -0.541000000     4.188000000
H    -3.392000000    -0.874000000     3.895000000
H    -4.881000000    -1.101000000     3.750000000
O    -1.926000000     2.996000000    -3.408000000
H    -2.775000000     2.609000000    -3.193000000
H    -1.829000000     2.853000000    -4.350000000
O     2.659000000    -5.018000000     3.305000000
H     2.948000000    -5.884000000     3.017000000
H     3.096000000    -4.409000000     2.709000000
O     2.197000000    -0.117000000     1.864000000
H     1.413000000    -0.246000000     1.330000000
H     2.360000000     0.825000000     1.827000000
O     3.522000000    -2.530000000     2.024000000
H     3.001000000    -1.733000000     2.129000000
H     3.553000000    -2.673000000     1.078000000
O     2.203000000     5.179000000     1.952000000
H     2.904000000     5.346000000     2.581000000
H     1.474000000     4.860000000     2.484000000
O     1.984000000    -3.083000000    -6.552000000
H     1.527000000    -3.291000000    -7.367000000
H     1.579000000    -3.653000000    -5.898000000
O     4.180000000    -2.485000000    -0.670000000
H     4.901000000    -3.022000000    -0.998000000
H     3.690000000    -2.238000000    -1.455000000
O     6.344000000     3.625000000    -2.553000000
H     6.187000000     4.054000000    -3.394000000
H     6.941000000     4.215000000    -2.091000000
O     1.456000000     1.609000000    -5.992000000
H     2.060000000     0.941000000    -5.669000000
H     1.269000000     1.348000000    -6.894000000
O     2.931000000    -5.285000000    -4.451000000
H     3.462000000    -4.691000000    -4.980000000
H     3.370000000    -6.132000000    -4.529000000
O     2.485000000     2.980000000    -3.955000000
H     1.659000000     2.759000000    -4.384000000
H     2.686000000     2.217000000    -3.414000000
O    -1.074000000     5.517000000     3.260000000
H    -0.466000000     4.782000000     3.337000000
H    -1.878000000     5.128000000     2.918000000
O    -1.383000000    -1.433000000     4.589000000
H    -0.917000000    -2.147000000     4.154000000
H    -1.608000000    -1.784000000     5.451000000
O     5.932000000     2.046000000    -5.396000000
H     6.556000000     2.207000000    -6.104000000
H     5.266000000     2.724000000    -5.506000000
O    -3.141000000     4.003000000     2.262000000
H    -3.147000000     4.195000000     1.325000000
H    -3.703000000     3.234000000     2.353000000
O     2.505000000     5.191000000    -0.723000000
H     2.216000000     5.160000000     0.189000000
H     3.015000000     4.389000000    -0.841000000
O     0.878000000    -3.159000000    -3.316000000
H     1.236000000    -2.311000000    -3.055000000
H     1.488000000    -3.800000000    -2.952000000
O    -1.365000000     4.912000000     0.109000000
H    -0.749000000     4.781000000    -0.612000000
H    -1.392000000     5.861000000     0.230000000
O     3.307000000     2.312000000     1.594000000
H     3.175000000     3.150000000     2.036000000
H     3.703000000     2.543000000     0.754000000
O    -4.808000000    -0.638000000     6.864000000
H    -4.604000000    -0.648000000     5.929000000
H    -5.751000000    -0.481000000     6.902000000
O     5.160000000    -4.206000000    -5.295000000
H     5.449000000    -5.014000000    -4.872000000
H     5.400000000    -3.514000000    -4.680000000
O    -5.161000000    -2.167000000     1.967000000
H    -6.007000000    -1.965000000     1.566000000
H    -5.151000000    -3.122000000     2.036000000
