158
-3020.45837
C     0.647000000     0.355000000    -1.292000000
H     1.320000000     0.668000000    -2.087000000
C     0.200000000     1.228000000    -0.359000000
H     0.273000000     2.261000000    -0.689000000
C    -0.520000000     0.848000000     0.741000000
H    -0.821000000     1.629000000     1.353000000
C    -0.689000000    -0.578000000     0.978000000
H    -1.242000000    -0.952000000     1.836000000
C    -0.122000000    -1.511000000     0.142000000
H    -0.158000000    -2.565000000     0.406000000
C     0.559000000    -1.025000000    -1.034000000
C     1.308000000    -2.053000000    -1.873000000
O     1.950000000    -1.682000000    -2.848000000
O     1.391000000    -3.163000000    -1.507000000
O    -0.797000000     5.322000000     4.279000000
H    -0.457000000     5.024000000     3.436000000
H    -1.735000000     5.136000000     4.240000000
O    -2.832000000    -4.306000000     0.014000000
H    -2.826000000    -5.255000000    -0.105000000
H    -3.624000000    -4.133000000     0.523000000
O     3.451000000    -6.975000000    -1.278000000
H     3.896000000    -7.773000000    -0.991000000
H     3.895000000    -6.732000000    -2.090000000
O    -0.239000000    -0.060000000    -6.143000000
H    -0.843000000    -0.216000000    -5.417000000
H     0.076000000    -0.931000000    -6.384000000
O     3.890000000    -4.272000000    -1.570000000
H     3.810000000    -5.137000000    -1.166000000
H     2.987000000    -3.974000000    -1.678000000
O    -4.431000000     1.573000000     2.567000000
H    -4.351000000     1.804000000     3.492000000
H    -5.081000000     2.186000000     2.223000000
O     1.536000000    -2.513000000    -5.429000000
H     0.903000000    -3.220000000    -5.550000000
H     1.546000000    -2.359000000    -4.484000000
O    -2.120000000     3.539000000    -0.085000000
H    -3.060000000     3.672000000    -0.204000000
H    -1.742000000     3.712000000    -0.947000000
O    -5.833000000    -0.900000000     3.050000000
H    -6.396000000    -0.817000000     2.281000000
H    -5.486000000    -0.019000000     3.190000000
O    -4.565000000     4.527000000    -0.330000000
H    -4.670000000     5.026000000    -1.140000000
H    -5.031000000     5.040000000     0.330000000
O     3.094000000     2.408000000     1.421000000
H     2.139000000     2.342000000     1.410000000
H     3.397000000     1.500000000     1.394000000
O     5.515000000    -3.329000000    -5.207000000
H     4.917000000    -2.746000000    -4.739000000
H     5.783000000    -3.973000000    -4.551000000
O    -2.787000000     2.775000000    -4.001000000
H    -2.099000000     3.409000000    -3.801000000
H    -2.810000000     2.197000000    -3.238000000
O     2.768000000    -5.793000000    -4.834000000
H     2.080000000    -6.032000000    -4.212000000
H     3.238000000    -5.076000000    -4.407000000
O    -4.470000000     1.993000000     5.278000000
H    -5.118000000     1.587000000     5.854000000
H    -4.473000000     2.917000000     5.528000000
O     2.064000000    -0.984000000     3.298000000
H     1.800000000    -1.586000000     3.993000000
H     1.454000000    -0.250000000     3.372000000
O     1.152000000     6.138000000     0.029000000
H     1.598000000     6.914000000    -0.312000000
H     0.393000000     6.027000000    -0.543000000
O     1.709000000     2.980000000    -2.878000000
H     1.483000000     2.294000000    -3.507000000
H     2.614000000     3.208000000    -3.088000000
O     2.317000000    -1.829000000    -7.825000000
H     2.242000000    -2.118000000    -6.915000000
H     3.165000000    -1.388000000    -7.867000000
O    -3.354000000    -3.607000000     3.382000000
H    -2.608000000    -4.027000000     2.954000000
H    -2.966000000    -3.089000000     4.086000000
O    -2.353000000    -0.431000000    -4.512000000
H    -3.127000000     0.126000000    -4.598000000
H    -2.163000000    -0.432000000    -3.574000000
O     5.582000000     0.508000000    -2.199000000
H     6.533000000     0.538000000    -2.093000000
H     5.325000000    -0.332000000    -1.818000000
O     3.885000000     1.813000000    -5.741000000
H     4.269000000     2.143000000    -4.928000000
H     3.035000000     1.461000000    -5.479000000
O     1.033000000     2.435000000     3.984000000
H     1.021000000     3.140000000     3.336000000
H     0.122000000     2.149000000     4.044000000
O    -0.760000000     4.295000000    -2.746000000
H    -0.030000000     3.948000000    -3.259000000
H    -0.512000000     5.199000000    -2.555000000
O     5.089000000    -1.776000000    -0.669000000
H     4.509000000    -2.438000000    -1.044000000
H     5.867000000    -2.264000000    -0.398000000
O    -1.727000000     2.587000000     3.932000000
H    -2.617000000     2.406000000     4.236000000
H    -1.839000000     2.890000000     3.031000000
O     4.058000000    -4.398000000     1.513000000
H     4.059000000    -3.454000000     1.352000000
H     3.157000000    -4.670000000     1.339000000
O    -2.486000000     0.550000000    -1.889000000
H    -3.221000000     0.191000000    -1.391000000
H    -1.766000000     0.587000000    -1.260000000
O    -3.308000000    -2.778000000    -2.293000000
H    -2.530000000    -2.948000000    -2.824000000
H    -3.052000000    -3.030000000    -1.406000000
O     3.614000000    -0.177000000     1.120000000
H     3.030000000    -0.649000000     1.714000000
H     3.592000000    -0.684000000     0.309000000
O    -3.996000000     0.112000000     0.610000000
H    -4.049000000     0.883000000     1.175000000
H    -4.022000000    -0.630000000     1.214000000
O    -0.738000000    -5.264000000     3.276000000
H    -0.104000000    -5.401000000     2.572000000
H    -0.272000000    -4.726000000     3.916000000
O     1.676000000     0.589000000    -4.415000000
H     0.877000000     0.407000000    -4.910000000
H     1.773000000    -0.163000000    -3.832000000
O    -6.072000000     1.982000000    -1.105000000
H    -5.196000000     1.980000000    -0.719000000
H    -6.612000000     2.454000000    -0.470000000
O     0.678000000    -5.350000000    -2.911000000
H     0.430000000    -5.879000000    -2.153000000
H     0.923000000    -4.501000000    -2.541000000
O    -0.195000000     4.288000000     1.664000000
H    -0.787000000     3.939000000     0.998000000
H     0.318000000     4.953000000     1.205000000
O     3.462000000     4.362000000    -0.170000000
H     2.707000000     4.888000000     0.096000000
H     3.323000000     3.514000000     0.251000000
O     0.734000000    -7.107000000    -0.665000000
H     0.443000000    -7.937000000    -0.288000000
H     1.662000000    -7.244000000    -0.858000000
O    -5.136000000    -3.598000000     1.318000000
H    -4.393000000    -3.354000000     1.871000000
H    -5.893000000    -3.556000000     1.903000000
O     1.200000000    -4.793000000     0.752000000
H     1.260000000    -4.105000000     0.090000000
H     0.587000000    -5.428000000     0.383000000
O     4.323000000    -1.099000000    -3.852000000
H     4.643000000    -0.432000000    -3.244000000
H     3.547000000    -1.460000000    -3.424000000
O     2.006000000     1.027000000     6.201000000
H     2.493000000     1.567000000     6.824000000
H     1.725000000     1.640000000     5.521000000
O     3.705000000     4.553000000     3.146000000
H     3.600000000     3.836000000     2.521000000
H     4.598000000     4.453000000     3.478000000
O    -0.966000000     1.721000000     6.716000000
H    -0.331000000     1.089000000     6.379000000
H    -1.780000000     1.223000000     6.793000000
O    -1.962000000    -2.183000000     5.872000000
H    -2.023000000    -3.043000000     6.288000000
H    -1.042000000    -2.104000000     5.620000000
O     0.593000000    -2.952000000     5.249000000
H     1.199000000    -2.519000000     5.849000000
H     0.878000000    -3.866000000     5.239000000
O     4.590000000     2.792000000    -3.324000000
H     4.942000000     3.560000000    -2.874000000
H     4.953000000     2.047000000    -2.844000000
