158
-3053.98670
C     0.489000000     0.638000000    -1.247000000
H     0.927000000     1.203000000    -2.066000000
C     0.495000000     1.238000000    -0.006000000
H     0.985000000     2.190000000     0.180000000
C    -0.011000000     0.562000000     1.086000000
H     0.065000000     1.147000000     2.050000000
C    -0.615000000    -0.675000000     0.873000000
H    -1.036000000    -1.121000000     1.771000000
C    -0.650000000    -1.267000000    -0.382000000
H    -1.205000000    -2.199000000    -0.457000000
C    -0.036000000    -0.656000000    -1.447000000
C     0.036000000    -1.400000000    -2.757000000
O     0.791000000    -1.042000000    -3.628000000
O    -0.577000000    -2.464000000    -2.941000000
O    -2.805000000     5.384000000     2.478000000
H    -2.853000000     5.106000000     1.563000000
H    -3.718000000     5.427000000     2.763000000
O     2.602000000    -5.043000000    -4.634000000
H     1.712000000    -5.396000000    -4.654000000
H     3.166000000    -5.817000000    -4.634000000
O     2.356000000    -2.243000000    -5.348000000
H     2.297000000    -3.198000000    -5.330000000
H     1.826000000    -1.956000000    -4.605000000
O    -2.967000000     4.535000000    -0.148000000
H    -2.338000000     4.306000000    -0.832000000
H    -3.493000000     3.743000000    -0.032000000
O     4.771000000     0.121000000     3.472000000
H     4.604000000    -0.556000000     2.816000000
H     5.566000000    -0.170000000     3.920000000
O    -4.583000000     0.492000000     2.480000000
H    -4.588000000     1.071000000     3.242000000
H    -5.507000000     0.315000000     2.308000000
O    -2.323000000    -7.275000000    -3.662000000
H    -2.772000000    -7.246000000    -2.818000000
H    -1.755000000    -6.505000000    -3.658000000
O    -1.352000000     4.566000000    -2.399000000
H    -1.035000000     5.353000000    -2.842000000
H    -1.486000000     3.932000000    -3.104000000
O     1.071000000     4.101000000     2.754000000
H     0.461000000     3.505000000     3.188000000
H     0.529000000     4.590000000     2.135000000
O     0.343000000    -6.312000000    -6.219000000
H    -0.003000000    -5.439000000    -6.032000000
H     0.180000000    -6.811000000    -5.419000000
O     2.096000000    -2.905000000     1.815000000
H     1.869000000    -2.004000000     2.043000000
H     2.409000000    -3.288000000     2.634000000
O     1.599000000     1.094000000    -7.921000000
H     0.864000000     0.584000000    -8.262000000
H     1.504000000     1.045000000    -6.970000000
O    -3.721000000    -2.909000000     0.228000000
H    -3.370000000    -3.626000000     0.756000000
H    -4.591000000    -3.208000000    -0.035000000
O     4.402000000     2.372000000    -0.095000000
H     3.702000000     2.994000000     0.097000000
H     4.021000000     1.515000000     0.097000000
O    -4.551000000    -5.344000000    -1.718000000
H    -3.903000000    -5.893000000    -1.276000000
H    -4.033000000    -4.674000000    -2.164000000
O    -3.088000000    -0.176000000    -5.062000000
H    -2.795000000    -0.598000000    -4.254000000
H    -2.650000000    -0.665000000    -5.759000000
O     1.890000000     3.610000000    -5.168000000
H     1.591000000     2.706000000    -5.072000000
H     2.047000000     3.713000000    -6.107000000
O     1.395000000    -4.153000000    -0.404000000
H     1.865000000    -3.737000000    -1.126000000
H     1.812000000    -3.806000000     0.385000000
O    -1.160000000     3.061000000     4.094000000
H    -1.993000000     3.471000000     3.861000000
H    -1.403000000     2.201000000     4.437000000
O    -1.011000000     4.156000000    -5.421000000
H    -1.260000000     3.351000000    -5.874000000
H    -0.152000000     3.963000000    -5.045000000
O     3.749000000    -0.637000000    -2.936000000
H     3.058000000    -0.180000000    -3.415000000
H     4.484000000    -0.669000000    -3.549000000
O     0.752000000    -2.363000000    -8.313000000
H     1.253000000    -2.297000000    -7.499000000
H     1.414000000    -2.497000000    -8.991000000
O     2.949000000    -3.493000000    -2.479000000
H     3.229000000    -2.655000000    -2.847000000
H     3.058000000    -4.118000000    -3.196000000
O    -4.314000000    -0.401000000    -0.106000000
H    -4.176000000    -0.001000000     0.753000000
H    -4.143000000    -1.333000000     0.035000000
O    -3.168000000    -2.591000000    -2.733000000
H    -2.244000000    -2.708000000    -2.954000000
H    -3.175000000    -2.481000000    -1.783000000
O     3.349000000    -0.146000000    -0.113000000
H     2.421000000     0.022000000     0.054000000
H     3.353000000    -0.888000000    -0.718000000
O    -2.102000000     0.940000000     5.890000000
H    -2.792000000     1.109000000     6.532000000
H    -2.241000000     0.031000000     5.623000000
O     2.131000000     6.680000000     3.205000000
H     3.054000000     6.531000000     3.001000000
H     1.777000000     5.805000000     3.366000000
O    -1.266000000    -3.980000000     1.450000000
H    -0.493000000    -3.838000000     0.903000000
H    -1.051000000    -3.560000000     2.283000000
O     1.758000000     6.317000000    -1.217000000
H     1.638000000     6.107000000    -2.143000000
H     2.231000000     7.149000000    -1.219000000
O     0.081000000    -3.683000000    -5.282000000
H     0.185000000    -2.924000000    -5.857000000
H    -0.191000000    -3.312000000    -4.443000000
O     4.964000000    -1.104000000    -6.380000000
H     5.490000000    -1.822000000    -6.733000000
H     4.111000000    -1.498000000    -6.200000000
O    -0.266000000     5.514000000     0.849000000
H    -0.257000000     5.366000000    -0.097000000
H    -0.009000000     6.430000000     0.951000000
O     2.750000000     4.461000000     0.502000000
H     2.501000000     5.091000000    -0.174000000
H     2.088000000     4.567000000     1.185000000
O     2.581000000     0.574000000     6.389000000
H     2.766000000     1.512000000     6.436000000
H     1.927000000     0.425000000     7.071000000
O     4.949000000     2.805000000     4.143000000
H     4.740000000     1.955000000     3.756000000
H     5.826000000     2.693000000     4.508000000
O    -1.083000000    -5.093000000    -2.470000000
H    -1.004000000    -4.180000000    -2.747000000
H    -0.200000000    -5.335000000    -2.188000000
O     0.689000000     1.001000000    -5.096000000
H    -0.248000000     0.972000000    -5.291000000
H     0.825000000     0.293000000    -4.466000000
O    -0.051000000    -2.529000000     4.190000000
H     0.466000000    -3.320000000     4.341000000
H     0.600000000    -1.837000000     4.069000000
O     2.695000000     3.533000000     6.029000000
H     3.441000000     4.021000000     6.379000000
H     2.966000000     3.283000000     5.145000000
O    -3.306000000    -5.647000000     1.384000000
H    -3.123000000    -6.210000000     0.632000000
H    -2.491000000    -5.166000000     1.527000000
O     4.718000000     5.158000000     2.629000000
H     4.379000000     4.663000000     1.883000000
H     4.990000000     4.489000000     3.257000000
O     0.079000000     0.702000000     7.768000000
H    -0.099000000     1.141000000     8.600000000
H    -0.625000000     0.993000000     7.189000000
O     0.271000000     5.038000000     5.367000000
H     1.124000000     4.715000000     5.656000000
H    -0.221000000     4.248000000     5.143000000
O    -2.588000000    -1.559000000     4.605000000
H    -3.104000000    -1.267000000     3.853000000
H    -1.827000000    -1.994000000     4.219000000
O     2.100000000    -0.891000000     3.930000000
H     1.926000000    -0.135000000     4.490000000
H     3.016000000    -0.790000000     3.671000000
O     4.364000000     2.904000000    -2.681000000
H     4.432000000     2.011000000    -3.018000000
H     4.472000000     2.811000000    -1.734000000
O    -2.960000000    -2.737000000    -6.979000000
H    -3.714000000    -2.914000000    -7.541000000
H    -3.331000000    -2.649000000    -6.101000000
