158
-3047.84224
C     1.328000000     0.169000000    -0.653000000
H     2.328000000     0.360000000    -1.034000000
C     0.691000000     1.029000000     0.273000000
H     1.227000000     1.907000000     0.623000000
C    -0.533000000     0.712000000     0.824000000
H    -1.092000000     1.391000000     1.563000000
C    -1.118000000    -0.492000000     0.530000000
H    -2.130000000    -0.551000000     0.923000000
C    -0.569000000    -1.331000000    -0.445000000
H    -1.178000000    -2.201000000    -0.677000000
C     0.673000000    -1.039000000    -1.021000000
C     1.319000000    -1.834000000    -2.101000000
O     2.502000000    -1.550000000    -2.445000000
O     0.694000000    -2.694000000    -2.690000000
O    -3.073000000    -3.474000000     3.087000000
H    -2.936000000    -2.528000000     3.048000000
H    -2.750000000    -3.798000000     2.246000000
O    -5.530000000    -3.354000000    -0.236000000
H    -4.943000000    -2.729000000    -0.660000000
H    -5.058000000    -4.186000000    -0.267000000
O    -1.014000000     2.392000000     5.211000000
H    -1.913000000     2.708000000     5.122000000
H    -1.098000000     1.561000000     5.680000000
O     4.980000000    -0.850000000    -1.856000000
H     4.066000000    -1.063000000    -2.046000000
H     4.948000000     0.031000000    -1.483000000
O    -1.482000000    -4.441000000    -6.110000000
H    -1.875000000    -4.527000000    -5.241000000
H    -0.903000000    -3.682000000    -6.037000000
O    -4.903000000     5.905000000     1.033000000
H    -5.493000000     5.248000000     1.402000000
H    -4.028000000     5.609000000     1.283000000
O    -6.458000000    -3.116000000     2.397000000
H    -6.024000000    -2.983000000     1.554000000
H    -6.365000000    -2.276000000     2.848000000
O     4.730000000     0.497000000    -5.173000000
H     4.414000000    -0.105000000    -5.846000000
H     5.619000000     0.199000000    -4.983000000
O    -1.936000000    -6.693000000    -0.793000000
H    -1.537000000    -7.170000000    -0.065000000
H    -1.193000000    -6.397000000    -1.320000000
O     3.235000000     2.986000000    -2.192000000
H     3.747000000     3.544000000    -1.607000000
H     3.886000000     2.443000000    -2.636000000
O    -1.265000000     5.700000000    -0.966000000
H    -0.344000000     5.955000000    -1.014000000
H    -1.564000000     6.041000000    -0.123000000
O     7.830000000    -1.066000000    -1.300000000
H     6.945000000    -1.042000000    -1.662000000
H     8.174000000    -0.184000000    -1.448000000
O    -6.539000000     1.656000000     4.117000000
H    -6.081000000     1.148000000     3.447000000
H    -7.156000000     1.037000000     4.507000000
O     1.138000000     2.684000000     3.573000000
H     0.419000000     2.714000000     4.205000000
H     0.759000000     3.027000000     2.764000000
O     0.281000000    -1.298000000     4.070000000
H     0.519000000    -2.103000000     3.611000000
H     1.068000000    -0.755000000     4.026000000
O     1.433000000    -4.622000000    -0.019000000
H     2.294000000    -4.472000000    -0.409000000
H     0.883000000    -4.902000000    -0.751000000
O    -2.384000000    -0.396000000     3.593000000
H    -1.517000000    -0.781000000     3.461000000
H    -2.352000000    -0.030000000     4.477000000
O     5.334000000     1.577000000    -0.277000000
H     5.862000000     1.287000000     0.467000000
H     5.473000000     2.523000000    -0.315000000
O     0.190000000    -2.146000000    -5.133000000
H     0.417000000    -2.345000000    -4.225000000
H     0.101000000    -1.193000000    -5.155000000
O     1.788000000     4.035000000    -4.244000000
H     2.271000000     3.568000000    -3.562000000
H     0.874000000     3.792000000    -4.100000000
O    -3.769000000     2.054000000     1.569000000
H    -3.240000000     2.824000000     1.778000000
H    -3.551000000     1.421000000     2.253000000
O     1.620000000    -3.045000000    -7.308000000
H     1.666000000    -3.997000000    -7.221000000
H     1.123000000    -2.758000000    -6.543000000
O     0.402000000     4.986000000     1.835000000
H     0.839000000     5.570000000     2.454000000
H     0.995000000     4.943000000     1.085000000
O     6.213000000    -1.717000000    -4.497000000
H     5.466000000    -2.182000000    -4.873000000
H     5.901000000    -1.415000000    -3.643000000
O     2.327000000    -6.669000000    -3.144000000
H     2.775000000    -5.841000000    -3.320000000
H     3.002000000    -7.337000000    -3.265000000
O    -1.036000000     4.081000000    -3.222000000
H    -1.486000000     3.281000000    -2.949000000
H    -1.157000000     4.686000000    -2.490000000
O    -0.350000000     0.672000000    -5.094000000
H    -0.237000000     1.428000000    -5.670000000
H     0.354000000     0.754000000    -4.451000000
O     3.880000000    -4.502000000    -1.095000000
H     4.323000000    -5.277000000    -0.749000000
H     4.316000000    -4.328000000    -1.929000000
O    -0.173000000    -0.846000000     6.558000000
H    -0.126000000    -0.964000000     5.609000000
H    -1.058000000    -0.518000000     6.715000000
O     2.106000000     0.435000000    -4.129000000
H     2.147000000    -0.305000000    -3.523000000
H     2.977000000     0.468000000    -4.526000000
O    -1.949000000     1.863000000    -2.233000000
H    -1.133000000     1.638000000    -1.787000000
H    -2.635000000     1.489000000    -1.680000000
O     0.014000000    -5.548000000    -2.312000000
H     0.670000000    -6.118000000    -2.713000000
H     0.324000000    -4.661000000    -2.492000000
O    -3.873000000     3.160000000     4.516000000
H    -3.946000000     4.113000000     4.564000000
H    -4.776000000     2.855000000     4.419000000
O    -3.586000000    -1.813000000    -1.630000000
H    -2.910000000    -1.861000000    -2.306000000
H    -3.686000000    -0.877000000    -1.457000000
O    -2.458000000     4.415000000     1.656000000
H    -2.349000000     4.215000000     0.726000000
H    -1.590000000     4.700000000     1.942000000
O    -2.106000000    -2.369000000    -3.628000000
H    -2.199000000    -1.994000000    -4.504000000
H    -1.177000000    -2.586000000    -3.558000000
O    -5.013000000    -0.579000000     3.168000000
H    -4.066000000    -0.444000000     3.149000000
H    -5.208000000    -0.772000000     4.085000000
O     0.369000000     4.869000000     6.361000000
H     0.751000000     4.598000000     7.196000000
H    -0.240000000     4.165000000     6.137000000
O    -3.631000000    -4.843000000    -3.378000000
H    -3.813000000    -5.109000000    -2.476000000
H    -3.408000000    -3.915000000    -3.314000000
O    -5.443000000    -1.352000000    -3.726000000
H    -4.638000000    -1.525000000    -3.238000000
H    -5.164000000    -1.306000000    -4.640000000
O     3.443000000    -3.808000000    -3.854000000
H     2.743000000    -3.238000000    -3.536000000
H     3.161000000    -4.066000000    -4.731000000
O    -4.164000000     1.168000000    -1.020000000
H    -4.960000000     1.677000000    -0.868000000
H    -3.846000000     0.954000000    -0.143000000
O     0.500000000    -4.033000000     2.516000000
H    -0.328000000    -3.843000000     2.074000000
H     0.959000000    -4.624000000     1.920000000
O     1.890000000     5.508000000     4.178000000
H     1.215000000     5.333000000     4.835000000
H     2.445000000     4.728000000     4.191000000
O     2.771000000     0.200000000     3.645000000
H     3.663000000     0.546000000     3.611000000
H     2.220000000     0.930000000     3.364000000
O    -6.460000000     2.571000000    -0.163000000
H    -6.076000000     2.736000000     0.698000000
H    -7.360000000     2.303000000     0.023000000
O    -2.224000000    -4.219000000     0.683000000
H    -2.115000000    -3.571000000    -0.013000000
H    -2.414000000    -5.036000000     0.222000000
O     1.318000000     5.841000000    -1.697000000
H     2.223000000     6.066000000    -1.484000000
H     1.391000000     5.105000000    -2.306000000
