158
-3028.08403
C     1.321000000     0.704000000    -0.264000000
H     2.222000000     1.257000000    -0.519000000
C     0.150000000     1.302000000     0.302000000
H     0.027000000     2.353000000     0.547000000
C    -0.990000000     0.506000000     0.468000000
H    -1.831000000     0.992000000     0.900000000
C    -0.984000000    -0.816000000     0.195000000
H    -1.893000000    -1.387000000     0.364000000
C     0.139000000    -1.466000000    -0.310000000
H     0.132000000    -2.548000000    -0.417000000
C     1.299000000    -0.663000000    -0.538000000
C     2.460000000    -1.369000000    -1.223000000
O     3.426000000    -0.694000000    -1.528000000
O     2.493000000    -2.574000000    -1.385000000
O    -2.246000000    -2.455000000     3.811000000
H    -1.414000000    -2.022000000     3.620000000
H    -2.078000000    -2.959000000     4.607000000
O    -2.606000000    -4.780000000     1.840000000
H    -1.815000000    -5.309000000     1.739000000
H    -2.385000000    -4.150000000     2.526000000
O     6.107000000    -1.647000000    -2.604000000
H     5.952000000    -1.881000000    -3.519000000
H     5.482000000    -0.944000000    -2.427000000
O    -2.679000000     4.864000000     4.924000000
H    -1.777000000     5.172000000     4.835000000
H    -2.596000000     3.932000000     5.123000000
O     5.941000000     1.576000000    -4.165000000
H     6.669000000     1.345000000    -3.588000000
H     5.182000000     1.627000000    -3.585000000
O     0.861000000    -4.441000000     1.890000000
H     0.667000000    -5.328000000     2.194000000
H     1.189000000    -4.560000000     0.999000000
O     1.274000000     4.985000000     2.124000000
H     0.956000000     4.788000000     1.243000000
H     2.223000000     4.876000000     2.066000000
O     6.516000000     1.149000000    -0.015000000
H     6.959000000     1.109000000    -0.863000000
H     7.096000000     1.679000000     0.533000000
O     2.150000000    -4.604000000    -4.487000000
H     3.023000000    -4.606000000    -4.096000000
H     2.229000000    -5.173000000    -5.253000000
O    -4.607000000     0.733000000    -2.100000000
H    -5.433000000     0.671000000    -2.579000000
H    -4.682000000     0.078000000    -1.406000000
O     0.578000000     4.858000000    -0.506000000
H     0.338000000     5.214000000    -1.362000000
H     1.484000000     4.567000000    -0.613000000
O     4.511000000    -3.505000000     3.024000000
H     4.532000000    -3.394000000     2.073000000
H     5.385000000    -3.246000000     3.315000000
O     0.395000000    -1.772000000     3.088000000
H     0.633000000    -2.635000000     2.749000000
H     0.133000000    -1.274000000     2.314000000
O     4.993000000    -2.825000000    -4.831000000
H     5.175000000    -3.654000000    -5.272000000
H     4.663000000    -3.079000000    -3.969000000
O     5.856000000    -0.551000000     2.074000000
H     5.475000000    -1.193000000     1.475000000
H     6.089000000     0.190000000     1.514000000
O    -2.256000000     5.432000000    -2.948000000
H    -2.078000000     4.492000000    -2.921000000
H    -2.662000000     5.575000000    -3.803000000
O     3.198000000    -0.523000000    -4.417000000
H     2.728000000     0.114000000    -3.879000000
H     3.617000000    -1.107000000    -3.785000000
O    -2.037000000     2.005000000     5.760000000
H    -1.081000000     2.006000000     5.806000000
H    -2.303000000     1.273000000     6.317000000
O    -3.550000000     6.116000000     1.017000000
H    -4.196000000     6.502000000     0.426000000
H    -4.045000000     5.905000000     1.808000000
O     1.660000000    -1.964000000    -6.059000000
H     1.655000000    -2.827000000    -5.644000000
H     2.082000000    -1.393000000    -5.418000000
O     2.121000000     4.019000000     4.670000000
H     1.403000000     4.190000000     4.061000000
H     2.913000000     4.113000000     4.140000000
O    -1.062000000     6.665000000     2.073000000
H    -0.289000000     6.122000000     2.232000000
H    -1.587000000     6.159000000     1.453000000
O     2.511000000     2.895000000    -3.589000000
H     2.957000000     2.437000000    -2.877000000
H     2.649000000     3.823000000    -3.400000000
O    -0.775000000     2.681000000    -2.316000000
H    -0.069000000     2.469000000    -1.706000000
H    -1.559000000     2.729000000    -1.769000000
O    -5.530000000    -2.954000000    -1.926000000
H    -5.045000000    -2.899000000    -2.750000000
H    -4.994000000    -3.519000000    -1.370000000
O     5.590000000    -0.304000000    -6.296000000
H     5.606000000     0.466000000    -5.728000000
H     5.198000000    -0.991000000    -5.757000000
O    -4.361000000     2.012000000     4.186000000
H    -3.544000000     1.992000000     4.683000000
H    -4.292000000     1.276000000     3.579000000
O    -4.674000000    -4.705000000     0.113000000
H    -5.308000000    -5.009000000     0.762000000
H    -3.845000000    -4.663000000     0.590000000
O     4.408000000     1.567000000    -1.936000000
H     4.962000000     1.724000000    -1.172000000
H     4.003000000     0.716000000    -1.768000000
O    -2.839000000     3.105000000    -0.706000000
H    -3.433000000     2.359000000    -0.791000000
H    -3.275000000     3.689000000    -0.086000000
O     1.898000000    -5.054000000    -0.754000000
H     2.768000000    -5.290000000    -0.430000000
H     1.970000000    -4.127000000    -0.980000000
O    -1.728000000    -2.078000000    -5.145000000
H    -2.559000000    -2.130000000    -4.674000000
H    -1.090000000    -2.471000000    -4.549000000
O    -4.711000000     5.537000000     3.286000000
H    -5.454000000     5.728000000     3.858000000
H    -3.960000000     5.489000000     3.877000000
O    -6.268000000     3.973000000    -0.974000000
H    -6.126000000     3.069000000    -1.255000000
H    -5.629000000     4.109000000    -0.275000000
O     0.150000000    -3.301000000    -3.178000000
H     0.871000000    -3.754000000    -3.615000000
H     0.580000000    -2.683000000    -2.586000000
O     4.362000000    -5.821000000    -0.474000000
H     5.219000000    -5.584000000    -0.121000000
H     4.394000000    -6.774000000    -0.559000000
O    -3.701000000    -0.753000000     5.769000000
H    -4.645000000    -0.833000000     5.633000000
H    -3.312000000    -1.200000000     5.017000000
O    -1.644000000    -5.120000000    -2.360000000
H    -1.591000000    -5.185000000    -3.314000000
H    -1.129000000    -4.343000000    -2.144000000
O    -4.138000000     0.082000000     2.343000000
H    -3.900000000    -0.669000000     2.887000000
H    -4.330000000    -0.296000000     1.485000000
O     4.717000000    -2.226000000     0.454000000
H     3.841000000    -2.176000000     0.071000000
H     5.291000000    -2.424000000    -0.286000000
O     8.418000000    -2.587000000    -1.542000000
H     8.723000000    -2.056000000    -0.806000000
H     7.540000000    -2.254000000    -1.729000000
O    -5.298000000     3.423000000     1.615000000
H    -5.058000000     4.054000000     2.294000000
H    -5.043000000     2.574000000     1.976000000
O    -0.385000000    -6.941000000    -0.904000000
H     0.495000000    -6.626000000    -0.700000000
H    -0.859000000    -6.161000000    -1.190000000
O    -7.402000000     2.000000000     3.867000000
H    -6.509000000     2.222000000     3.602000000
H    -7.795000000     2.838000000     4.108000000
O     4.281000000    -4.194000000    -2.655000000
H     3.627000000    -3.872000000    -2.035000000
H     4.947000000    -4.609000000    -2.107000000
O     3.306000000     4.394000000     0.478000000
H     3.745000000     5.066000000    -0.044000000
H     3.956000000     4.134000000     1.130000000
O    -5.625000000    -1.265000000     0.208000000
H    -5.668000000    -1.850000000    -0.548000000
H    -6.540000000    -1.084000000     0.423000000
O    -2.725000000     1.609000000    -3.840000000
H    -3.437000000     1.613000000    -3.200000000
H    -1.935000000     1.467000000    -3.319000000
