158
-3047.70865
C     1.066000000    -0.834000000    -0.669000000
H     1.919000000    -1.434000000    -0.978000000
C     0.990000000    -0.458000000     0.702000000
H     1.713000000    -0.729000000     1.468000000
C     0.011000000     0.462000000     1.158000000
H     0.125000000     0.900000000     2.219000000
C    -0.946000000     0.883000000     0.261000000
H    -1.621000000     1.689000000     0.535000000
C    -1.037000000     0.279000000    -0.985000000
H    -1.884000000     0.514000000    -1.625000000
C    -0.021000000    -0.538000000    -1.499000000
C    -0.156000000    -1.195000000    -2.869000000
O     0.474000000    -2.220000000    -3.096000000
O    -0.783000000    -0.599000000    -3.746000000
O    -1.892000000     1.721000000     5.725000000
H    -1.278000000     2.421000000     5.946000000
H    -2.306000000     2.013000000     4.913000000
O    -4.512000000     1.451000000     1.464000000
H    -4.942000000     2.301000000     1.370000000
H    -4.772000000     0.964000000     0.682000000
O    -2.443000000     0.707000000     8.227000000
H    -3.041000000     1.411000000     8.476000000
H    -2.161000000     0.934000000     7.341000000
O     3.771000000     1.468000000    -2.939000000
H     4.113000000     2.007000000    -3.652000000
H     2.935000000     1.138000000    -3.267000000
O     0.140000000     3.213000000     4.237000000
H    -0.406000000     2.595000000     3.751000000
H     1.032000000     2.886000000     4.123000000
O     0.247000000     1.445000000     7.993000000
H     0.919000000     1.375000000     7.316000000
H    -0.328000000     0.694000000     7.838000000
O    -2.118000000     4.914000000     1.709000000
H    -1.349000000     5.425000000     1.960000000
H    -1.988000000     4.726000000     0.780000000
O     2.838000000    -3.063000000    -3.233000000
H     2.799000000    -3.643000000    -2.473000000
H     1.933000000    -2.780000000    -3.366000000
O     0.924000000     2.046000000    -3.696000000
H     1.056000000     2.298000000    -4.610000000
H     0.075000000     1.605000000    -3.689000000
O    -0.594000000    -4.964000000    -5.369000000
H    -0.300000000    -4.426000000    -6.104000000
H    -0.977000000    -5.740000000    -5.778000000
O     3.651000000     5.248000000     1.320000000
H     4.094000000     5.544000000     0.525000000
H     3.993000000     4.367000000     1.472000000
O     3.178000000    -0.809000000     4.122000000
H     3.055000000    -1.691000000     4.473000000
H     3.860000000    -0.909000000     3.457000000
O    -2.579000000     2.120000000    -7.215000000
H    -1.760000000     1.644000000    -7.348000000
H    -3.200000000     1.452000000    -6.924000000
O     0.341000000    -4.889000000    -2.775000000
H     0.350000000    -3.957000000    -2.560000000
H     0.235000000    -4.915000000    -3.726000000
O     4.802000000    -1.713000000    -1.564000000
H     4.816000000    -2.540000000    -1.083000000
H     3.934000000    -1.685000000    -1.967000000
O    -2.502000000    -1.186000000     1.958000000
H    -1.977000000    -1.116000000     2.755000000
H    -2.083000000    -0.586000000     1.341000000
O     0.999000000    -0.148000000     5.738000000
H     1.583000000    -0.376000000     5.015000000
H     0.148000000    -0.005000000     5.324000000
O    -5.046000000    -0.620000000    -0.430000000
H    -4.248000000    -0.982000000    -0.045000000
H    -4.867000000    -0.591000000    -1.370000000
O    -1.308000000    -4.905000000    -0.558000000
H    -0.643000000    -5.076000000    -1.225000000
H    -1.781000000    -4.138000000    -0.883000000
O     2.630000000     1.967000000     4.007000000
H     2.764000000     2.099000000     3.069000000
H     2.477000000     1.027000000     4.098000000
O    -1.800000000     4.679000000    -1.200000000
H    -1.089000000     5.251000000    -1.488000000
H    -2.386000000     4.626000000    -1.955000000
O     4.394000000     0.005000000     1.632000000
H     4.683000000     0.183000000     0.737000000
H     4.345000000    -0.949000000     1.684000000
O    -5.044000000     2.197000000    -4.250000000
H    -4.713000000     2.865000000    -4.850000000
H    -4.497000000     1.430000000    -4.420000000
O     0.378000000    -3.087000000    -7.486000000
H     1.162000000    -3.469000000    -7.880000000
H     0.703000000    -2.348000000    -6.972000000
O    -0.275000000     0.727000000    -7.914000000
H     0.282000000     0.209000000    -7.332000000
H     0.104000000     0.599000000    -8.784000000
O    -5.454000000    -0.931000000     3.051000000
H    -5.674000000    -1.557000000     2.361000000
H    -4.942000000    -0.255000000     2.607000000
O     0.275000000     5.529000000     2.847000000
H     0.199000000     4.645000000     3.208000000
H     0.731000000     6.026000000     3.526000000
O    -3.056000000     0.119000000    -4.832000000
H    -2.221000000     0.062000000    -4.367000000
H    -3.220000000    -0.773000000    -5.140000000
O     5.407000000     2.435000000     3.581000000
H     5.458000000     1.817000000     2.851000000
H     4.665000000     3.000000000     3.365000000
O     3.767000000    -4.479000000    -0.989000000
H     4.373000000    -4.762000000    -1.673000000
H     4.330000000    -4.129000000    -0.299000000
O     2.681000000    -3.632000000     4.987000000
H     2.713000000    -3.678000000     4.031000000
H     3.575000000    -3.409000000     5.246000000
O    -2.330000000     2.483000000     2.930000000
H    -2.220000000     3.273000000     2.401000000
H    -2.976000000     1.963000000     2.452000000
O    -1.644000000     5.883000000     4.963000000
H    -1.369000000     5.129000000     4.441000000
H    -1.555000000     5.592000000     5.870000000
O     3.000000000     3.350000000    -1.108000000
H     3.730000000     3.951000000    -1.260000000
H     3.102000000     2.675000000    -1.779000000
O     2.908000000     2.377000000     1.325000000
H     3.183000000     1.482000000     1.125000000
H     2.784000000     2.787000000     0.469000000
O     2.562000000    -4.908000000     2.776000000
H     2.084000000    -5.429000000     3.421000000
H     2.536000000    -5.435000000     1.977000000
O     0.910000000     4.753000000    -2.403000000
H     0.900000000     4.687000000    -1.448000000
H     1.441000000     4.009000000    -2.688000000
O     4.275000000    -2.746000000     2.181000000
H     5.078000000    -3.262000000     2.259000000
H     3.576000000    -3.397000000     2.132000000
O     0.880000000     5.440000000     0.329000000
H     1.796000000     5.213000000     0.169000000
H     0.821000000     5.541000000     1.279000000
O     5.365000000     1.062000000    -0.743000000
H     5.607000000     0.153000000    -0.917000000
H     4.639000000     1.236000000    -1.342000000
O    -2.365000000    -2.884000000    -4.871000000
H    -1.847000000    -3.491000000    -5.400000000
H    -1.741000000    -2.524000000    -4.241000000
O     3.969000000    -2.450000000    -5.906000000
H     3.906000000    -2.905000000    -5.066000000
H     4.351000000    -1.600000000    -5.689000000
O     0.925000000    -7.125000000    -1.434000000
H     0.835000000    -6.347000000    -1.985000000
H     1.814000000    -7.437000000    -1.604000000
O     3.182000000     1.884000000     6.740000000
H     3.435000000     1.987000000     5.823000000
H     3.461000000     0.998000000     6.968000000
O    -1.690000000    -0.847000000     4.572000000
H    -1.951000000    -1.183000000     5.430000000
H    -1.887000000     0.089000000     4.612000000
O    -1.863000000    -1.704000000    -8.513000000
H    -1.407000000    -0.868000000    -8.614000000
H    -1.299000000    -2.215000000    -7.932000000
O    -3.839000000    -3.268000000    -2.244000000
H    -4.406000000    -4.038000000    -2.286000000
H    -3.489000000    -3.179000000    -3.130000000
O     0.950000000    -0.881000000    -5.835000000
H     1.845000000    -0.752000000    -5.523000000
H     0.412000000    -0.832000000    -5.045000000
