158
-3029.57974
C     1.034000000    -0.096000000    -1.003000000
H     1.889000000    -0.011000000    -1.669000000
C     0.998000000     0.781000000     0.055000000
H     1.769000000     1.542000000     0.144000000
C    -0.074000000     0.794000000     0.935000000
H    -0.045000000     1.492000000     1.798000000
C    -1.098000000    -0.095000000     0.744000000
H    -1.967000000    -0.203000000     1.387000000
C    -1.027000000    -1.084000000    -0.211000000
H    -1.677000000    -1.947000000    -0.328000000
C     0.033000000    -1.079000000    -1.132000000
C     0.150000000    -2.022000000    -2.346000000
O     0.974000000    -1.848000000    -3.178000000
O    -0.778000000    -2.787000000    -2.541000000
O    -2.776000000     4.185000000    -1.236000000
H    -3.613000000     3.815000000    -1.517000000
H    -2.970000000     4.606000000    -0.399000000
O     4.255000000     2.210000000    -1.763000000
H     4.535000000     3.107000000    -1.947000000
H     3.461000000     2.095000000    -2.283000000
O    -1.305000000    -6.994000000     0.520000000
H    -1.543000000    -6.491000000    -0.259000000
H    -0.476000000    -7.413000000     0.292000000
O    -0.643000000     4.394000000     3.918000000
H    -1.078000000     3.637000000     4.310000000
H     0.018000000     4.016000000     3.337000000
O     4.648000000    -2.448000000    -6.550000000
H     5.370000000    -1.950000000    -6.932000000
H     4.116000000    -1.791000000    -6.100000000
O     6.702000000     1.500000000    -0.381000000
H     7.320000000     2.230000000    -0.424000000
H     5.936000000     1.806000000    -0.868000000
O     5.041000000    -0.251000000    -3.192000000
H     4.672000000     0.598000000    -2.949000000
H     5.801000000    -0.036000000    -3.733000000
O     2.531000000    -3.728000000    -2.306000000
H     2.724000000    -4.384000000    -2.976000000
H     2.147000000    -2.997000000    -2.791000000
O     2.047000000     2.159000000    -3.288000000
H     1.732000000     2.024000000    -4.181000000
H     1.288000000     2.499000000    -2.814000000
O    -3.464000000    -2.003000000    -5.309000000
H    -2.510000000    -1.943000000    -5.347000000
H    -3.711000000    -2.419000000    -6.135000000
O     1.262000000     4.127000000     1.963000000
H     1.341000000     4.434000000     1.060000000
H     2.002000000     3.531000000     2.079000000
O     2.910000000    -5.058000000    -4.695000000
H     2.330000000    -4.843000000    -5.426000000
H     3.733000000    -5.316000000    -5.110000000
O     1.218000000     0.754000000     4.181000000
H     0.291000000     0.968000000     4.284000000
H     1.540000000     0.648000000     5.076000000
O    -6.518000000     1.382000000     2.767000000
H    -6.707000000     2.001000000     2.062000000
H    -5.613000000     1.111000000     2.612000000
O    -1.650000000    -4.911000000    -1.310000000
H    -1.121000000    -4.198000000    -1.668000000
H    -1.721000000    -5.540000000    -2.028000000
O     1.512000000    -4.204000000     0.288000000
H     0.902000000    -4.857000000    -0.057000000
H     1.884000000    -3.790000000    -0.490000000
O     4.651000000    -2.000000000     1.184000000
H     4.564000000    -2.871000000     1.573000000
H     4.300000000    -2.097000000     0.300000000
O     3.273000000     5.322000000    -2.354000000
H     3.660000000     5.193000000    -1.488000000
H     3.659000000     6.138000000    -2.671000000
O     2.383000000     0.118000000    -7.596000000
H     2.746000000     0.885000000    -7.153000000
H     2.134000000    -0.474000000    -6.887000000
O    -6.115000000    -0.974000000     0.265000000
H    -6.178000000    -1.358000000     1.139000000
H    -5.468000000    -0.274000000     0.357000000
O    -5.988000000    -2.486000000    -2.029000000
H    -5.086000000    -2.316000000    -2.301000000
H    -6.228000000    -1.722000000    -1.505000000
O    -3.562000000    -3.740000000     0.224000000
H    -2.828000000    -4.126000000    -0.255000000
H    -3.943000000    -3.111000000    -0.388000000
O    -3.490000000     5.196000000     1.082000000
H    -2.896000000     5.939000000     0.981000000
H    -4.365000000     5.583000000     1.050000000
O    -3.644000000     0.470000000    -2.634000000
H    -3.793000000    -0.470000000    -2.735000000
H    -2.720000000     0.591000000    -2.855000000
O    -0.301000000    -4.980000000    -3.939000000
H    -0.780000000    -5.073000000    -4.763000000
H    -0.621000000    -4.158000000    -3.568000000
O    -4.978000000     2.479000000    -1.416000000
H    -5.240000000     2.880000000    -2.244000000
H    -4.277000000     1.873000000    -1.655000000
O    -4.737000000    -2.040000000     5.048000000
H    -5.473000000    -2.325000000     4.506000000
H    -4.009000000    -1.946000000     4.434000000
O    -2.279000000     6.504000000     3.834000000
H    -1.597000000     5.840000000     3.938000000
H    -3.098000000     6.031000000     3.980000000
O     0.275000000    -7.617000000    -3.285000000
H     0.190000000    -6.713000000    -3.588000000
H    -0.613000000    -7.971000000    -3.334000000
O    -1.379000000     0.780000000    -4.011000000
H    -0.947000000     1.538000000    -4.405000000
H    -0.677000000     0.142000000    -3.887000000
O    -1.233000000     3.200000000     7.022000000
H    -2.075000000     2.883000000     6.695000000
H    -1.403000000     3.439000000     7.933000000
O     4.817000000    -2.774000000    -1.850000000
H     4.014000000    -3.257000000    -2.046000000
H     4.745000000    -1.970000000    -2.365000000
O    -3.624000000     3.135000000     2.734000000
H    -3.524000000     3.847000000     2.102000000
H    -3.775000000     3.575000000     3.570000000
O     1.985000000     6.864000000     1.276000000
H     1.866000000     7.766000000     1.571000000
H     1.976000000     6.346000000     2.081000000
O    -0.477000000     3.140000000    -2.041000000
H    -0.482000000     2.265000000    -1.653000000
H    -1.342000000     3.497000000    -1.840000000
O     3.183000000     2.441000000     2.778000000
H     2.430000000     1.946000000     3.101000000
H     3.813000000     1.771000000     2.511000000
O     1.202000000    -2.041000000     2.017000000
H     0.762000000    -1.335000000     1.543000000
H     1.205000000    -2.776000000     1.403000000
O     0.715000000     5.771000000    -2.140000000
H     1.665000000     5.671000000    -2.190000000
H     0.385000000     4.879000000    -2.034000000
O    -2.315000000    -2.231000000     3.354000000
H    -2.258000000    -3.186000000     3.322000000
H    -1.438000000    -1.948000000     3.616000000
O     3.493000000    -2.419000000     3.955000000
H     3.946000000    -3.037000000     3.382000000
H     2.642000000    -2.285000000     3.538000000
O     5.111000000     0.760000000     1.947000000
H     4.868000000    -0.141000000     1.734000000
H     5.568000000     1.075000000     1.167000000
O    -3.186000000    -5.777000000     2.145000000
H    -2.517000000    -6.265000000     1.664000000
H    -3.375000000    -5.020000000     1.592000000
O    -3.406000000    -2.207000000    -2.683000000
H    -3.414000000    -2.185000000    -3.640000000
H    -2.543000000    -2.554000000    -2.458000000
O     2.519000000    -1.011000000    -5.094000000
H     1.822000000    -1.425000000    -4.586000000
H     3.144000000    -0.703000000    -4.438000000
O    -1.460000000     1.308000000     4.184000000
H    -2.335000000     1.086000000     4.500000000
H    -1.520000000     1.224000000     3.232000000
O     4.235000000     4.938000000     3.652000000
H     3.864000000     4.077000000     3.456000000
H     4.822000000     5.118000000     2.918000000
O    -4.310000000     0.891000000     1.055000000
H    -3.816000000     1.438000000     1.666000000
H    -4.371000000     1.418000000     0.258000000
O    -0.633000000    -2.214000000    -5.426000000
H    -0.800000000    -3.126000000    -5.665000000
H    -0.125000000    -2.268000000    -4.616000000
