158
-3051.86283
C     0.801000000     0.287000000    -1.165000000
H     1.403000000     0.791000000    -1.916000000
C     1.155000000     0.531000000     0.114000000
H     1.973000000     1.200000000     0.365000000
C     0.340000000     0.108000000     1.136000000
H     0.580000000     0.518000000     2.108000000
C    -0.749000000    -0.741000000     0.898000000
H    -1.426000000    -1.028000000     1.699000000
C    -1.169000000    -0.904000000    -0.409000000
H    -2.090000000    -1.466000000    -0.540000000
C    -0.422000000    -0.376000000    -1.494000000
C    -0.857000000    -0.476000000    -2.910000000
O    -0.199000000     0.041000000    -3.835000000
O    -1.922000000    -0.992000000    -3.198000000
O     2.547000000     3.171000000    -4.347000000
H     2.229000000     3.858000000    -4.932000000
H     1.766000000     2.871000000    -3.882000000
O    -1.572000000    -0.603000000    -8.338000000
H    -1.797000000    -0.952000000    -7.475000000
H    -1.097000000     0.207000000    -8.151000000
O     1.882000000    -1.752000000    -6.900000000
H     2.444000000    -1.103000000    -7.323000000
H     1.668000000    -1.367000000    -6.050000000
O     5.270000000     2.760000000    -4.341000000
H     4.326000000     2.613000000    -4.277000000
H     5.508000000     2.409000000    -5.199000000
O     2.806000000    -3.726000000     5.682000000
H     3.138000000    -2.869000000     5.416000000
H     2.660000000    -4.193000000     4.860000000
O     2.595000000    -2.784000000    -1.371000000
H     3.452000000    -2.372000000    -1.476000000
H     2.339000000    -3.035000000    -2.259000000
O     4.244000000     0.294000000     2.839000000
H     4.171000000    -0.575000000     2.444000000
H     4.121000000     0.900000000     2.109000000
O    -0.475000000     3.040000000    -3.234000000
H    -0.724000000     2.122000000    -3.342000000
H    -1.294000000     3.525000000    -3.341000000
O    -4.328000000    -3.118000000    -5.509000000
H    -4.782000000    -2.808000000    -6.292000000
H    -4.405000000    -4.071000000    -5.550000000
O    -3.531000000     1.903000000     2.378000000
H    -4.018000000     1.398000000     1.727000000
H    -3.744000000     1.486000000     3.212000000
O    -0.830000000    -4.132000000    -6.099000000
H    -1.423000000    -3.410000000    -5.887000000
H    -0.105000000    -3.717000000    -6.566000000
O    -1.252000000     2.212000000     7.281000000
H    -0.695000000     2.592000000     7.960000000
H    -0.638000000     1.821000000     6.659000000
O     0.674000000    -5.369000000    -0.932000000
H     0.746000000    -4.458000000    -0.646000000
H     0.202000000    -5.322000000    -1.764000000
O     3.410000000     5.426000000     2.723000000
H     2.710000000     4.778000000     2.797000000
H     3.078000000     6.067000000     2.095000000
O     0.097000000    -2.029000000     7.223000000
H     0.516000000    -2.564000000     6.549000000
H     0.353000000    -2.441000000     8.049000000
O     4.514000000    -2.623000000     2.301000000
H     4.671000000    -3.333000000     2.924000000
H     3.754000000    -2.911000000     1.797000000
O     4.814000000    -1.608000000    -2.441000000
H     5.263000000    -1.041000000    -3.067000000
H     5.374000000    -2.381000000    -2.373000000
O    -4.719000000     0.495000000    -0.659000000
H    -5.491000000     0.878000000    -0.243000000
H    -4.543000000    -0.299000000    -0.154000000
O     1.140000000     4.109000000    -1.291000000
H     0.663000000     3.687000000    -2.006000000
H     0.701000000     3.803000000    -0.497000000
O    -3.840000000    -4.442000000    -0.889000000
H    -3.606000000    -3.684000000    -1.426000000
H    -3.973000000    -5.150000000    -1.519000000
O    -4.267000000     0.221000000     4.715000000
H    -3.675000000    -0.488000000     4.466000000
H    -4.946000000    -0.206000000     5.236000000
O     3.982000000    -1.363000000     4.982000000
H     4.864000000    -1.731000000     4.922000000
H     4.031000000    -0.543000000     4.491000000
O    -6.116000000    -0.752000000    -2.974000000
H    -5.720000000     0.029000000    -2.588000000
H    -5.449000000    -1.431000000    -2.879000000
O     2.927000000     1.705000000    -6.825000000
H     3.031000000     2.348000000    -6.123000000
H     3.192000000     0.875000000    -6.430000000
O    -0.484000000    -4.757000000    -3.450000000
H    -0.762000000    -4.880000000    -4.357000000
H     0.295000000    -4.203000000    -3.510000000
O    -3.692000000     0.898000000    -3.370000000
H    -2.843000000     0.487000000    -3.533000000
H    -3.959000000     0.566000000    -2.513000000
O     2.175000000    -3.202000000     1.289000000
H     2.170000000    -2.848000000     0.399000000
H     1.263000000    -3.443000000     1.455000000
O     0.093000000     0.488000000     5.617000000
H     0.156000000    -0.344000000     6.085000000
H     0.035000000     0.240000000     4.694000000
O     0.338000000     5.660000000     0.891000000
H    -0.074000000     5.490000000     1.738000000
H    -0.357000000     6.050000000     0.360000000
O    -3.627000000    -2.754000000     3.753000000
H    -3.361000000    -3.589000000     3.368000000
H    -4.578000000    -2.820000000     3.834000000
O     4.472000000     2.034000000     4.781000000
H     4.420000000     1.559000000     3.951000000
H     3.568000000     2.280000000     4.973000000
O    -1.078000000     1.787000000    -6.028000000
H    -2.024000000     1.814000000    -5.881000000
H    -0.780000000     1.029000000    -5.525000000
O     1.878000000     2.619000000     5.764000000
H     2.161000000     2.721000000     6.673000000
H     1.239000000     1.907000000     5.790000000
O    -2.254000000     2.182000000    -0.330000000
H    -3.068000000     1.679000000    -0.295000000
H    -1.611000000     1.629000000     0.114000000
O    -2.398000000     4.245000000     1.938000000
H    -2.399000000     4.387000000     0.991000000
H    -2.735000000     3.356000000     2.047000000
O    -0.272000000    -3.781000000     2.085000000
H    -1.138000000    -3.757000000     1.678000000
H    -0.194000000    -4.671000000     2.429000000
O    -2.535000000    -1.760000000     6.378000000
H    -1.643000000    -1.666000000     6.710000000
H    -2.425000000    -1.936000000     5.443000000
O    -3.111000000    -4.584000000     1.728000000
H    -2.979000000    -5.528000000     1.814000000
H    -3.555000000    -4.479000000     0.886000000
O     0.628000000    -1.710000000     3.680000000
H     1.554000000    -1.750000000     3.440000000
H     0.217000000    -2.401000000     3.161000000
O     4.382000000     2.245000000     0.608000000
H     4.237000000     2.781000000    -0.172000000
H     4.845000000     2.825000000     1.213000000
O     2.092000000    -3.516000000    -3.965000000
H     2.698000000    -4.127000000    -4.385000000
H     2.550000000    -2.676000000    -3.980000000
O    -4.030000000    -2.449000000    -2.900000000
H    -4.083000000    -2.704000000    -3.821000000
H    -3.317000000    -1.811000000    -2.869000000
O     2.283000000    -0.474000000    -4.623000000
H     2.856000000    -0.049000000    -3.984000000
H     1.404000000    -0.172000000    -4.393000000
O     0.870000000     5.052000000     4.607000000
H     1.150000000     4.182000000     4.892000000
H    -0.075000000     4.968000000     4.477000000
O    -2.190000000     4.653000000     4.821000000
H    -2.544000000     4.767000000     3.939000000
H    -2.651000000     3.890000000     5.167000000
O    -4.421000000    -1.180000000     1.418000000
H    -3.781000000    -1.755000000     1.837000000
H    -5.266000000    -1.476000000     1.756000000
O    -4.636000000     3.484000000    -4.340000000
H    -4.352000000     3.346000000    -5.244000000
H    -4.568000000     2.620000000    -3.933000000
O    -1.842000000    -1.675000000    -5.881000000
H    -2.793000000    -1.741000000    -5.797000000
H    -1.555000000    -1.283000000    -5.057000000
