158
-3040.89370
C     0.280000000    -1.342000000    -0.714000000
H     0.269000000    -2.367000000    -1.074000000
C    -0.593000000    -1.132000000     0.402000000
H    -1.081000000    -1.931000000     0.953000000
C    -0.768000000     0.168000000     0.956000000
H    -1.330000000     0.322000000     1.893000000
C    -0.089000000     1.249000000     0.378000000
H    -0.213000000     2.232000000     0.827000000
C     0.763000000     1.074000000    -0.700000000
H     1.176000000     1.970000000    -1.156000000
C     0.865000000    -0.202000000    -1.299000000
C     1.632000000    -0.293000000    -2.533000000
O     2.383000000     0.592000000    -2.993000000
O     1.522000000    -1.334000000    -3.224000000
O    -0.786000000     2.499000000     7.714000000
H    -0.510000000     1.641000000     8.036000000
H    -0.865000000     2.385000000     6.767000000
O     2.276000000    -6.600000000    -1.947000000
H     2.319000000    -5.649000000    -1.841000000
H     2.924000000    -6.939000000    -1.330000000
O     6.653000000     0.737000000     0.083000000
H     7.380000000     1.261000000    -0.253000000
H     6.324000000     0.266000000    -0.683000000
O    -2.168000000     0.194000000    -1.933000000
H    -1.586000000    -0.035000000    -1.209000000
H    -2.990000000    -0.252000000    -1.730000000
O     3.756000000     2.544000000    -1.657000000
H     3.292000000     1.790000000    -2.021000000
H     4.187000000     2.947000000    -2.411000000
O     1.968000000     6.485000000    -3.056000000
H     2.200000000     6.539000000    -2.129000000
H     1.404000000     5.714000000    -3.117000000
O    -4.419000000    -1.390000000    -1.266000000
H    -3.965000000    -1.979000000    -0.663000000
H    -5.319000000    -1.716000000    -1.287000000
O    -2.062000000     0.350000000    -4.903000000
H    -2.054000000    -0.477000000    -4.421000000
H    -2.051000000     1.024000000    -4.224000000
O     5.006000000     3.653000000    -3.895000000
H     4.269000000     3.798000000    -4.489000000
H     5.778000000     3.883000000    -4.411000000
O     0.344000000     0.861000000     5.602000000
H     0.092000000    -0.026000000     5.345000000
H     1.003000000     0.734000000     6.285000000
O    -0.063000000    -2.671000000    -4.934000000
H     0.474000000    -2.166000000    -4.324000000
H    -0.111000000    -2.126000000    -5.720000000
O    -4.202000000     1.068000000     0.160000000
H    -4.235000000     0.672000000     1.031000000
H    -4.308000000     0.332000000    -0.443000000
O    -3.629000000    -4.669000000     3.129000000
H    -3.953000000    -4.796000000     4.021000000
H    -3.051000000    -5.417000000     2.976000000
O    -0.825000000    -5.212000000    -4.401000000
H    -0.601000000    -4.281000000    -4.370000000
H    -1.779000000    -5.227000000    -4.471000000
O     0.503000000     4.282000000    -3.575000000
H     0.040000000     4.741000000    -4.275000000
H     0.538000000     3.371000000    -3.868000000
O     0.273000000     3.335000000     4.236000000
H     0.091000000     2.501000000     4.669000000
H     0.941000000     3.748000000     4.783000000
O     4.754000000    -4.731000000    -0.303000000
H     4.440000000    -3.999000000    -0.834000000
H     5.309000000    -5.237000000    -0.897000000
O     3.772000000    -1.521000000    -5.031000000
H     3.761000000    -2.348000000    -5.512000000
H     3.026000000    -1.581000000    -4.434000000
O     0.547000000    -2.311000000     4.085000000
H     0.431000000    -2.873000000     3.319000000
H     1.495000000    -2.282000000     4.219000000
O     5.443000000    -0.312000000    -2.180000000
H     6.226000000     0.109000000    -2.534000000
H     4.727000000     0.019000000    -2.723000000
O    -5.898000000     0.746000000     2.658000000
H    -6.040000000     1.320000000     3.410000000
H    -5.051000000     0.333000000     2.829000000
O     1.937000000     3.405000000     6.556000000
H     1.742000000     2.503000000     6.302000000
H     2.255000000     3.337000000     7.456000000
O     2.915000000     4.615000000    -5.297000000
H     2.616000000     5.341000000    -4.748000000
H     2.157000000     4.034000000    -5.358000000
O     5.737000000     0.221000000    -7.211000000
H     5.106000000     0.541000000    -6.566000000
H     5.643000000    -0.731000000    -7.186000000
O    -3.818000000    -0.997000000     2.578000000
H    -3.605000000    -1.707000000     3.183000000
H    -4.350000000    -1.412000000     1.899000000
O     4.306000000     2.015000000     3.555000000
H     3.495000000     2.460000000     3.312000000
H     4.437000000     1.362000000     2.867000000
O     0.617000000     1.864000000    -4.447000000
H     0.187000000     1.436000000    -5.188000000
H     1.199000000     1.195000000    -4.088000000
O    -2.964000000     6.235000000     1.211000000
H    -3.920000000     6.192000000     1.252000000
H    -2.692000000     5.334000000     1.033000000
O     3.869000000    -4.682000000     2.281000000
H     4.272000000    -4.837000000     1.427000000
H     3.092000000    -4.157000000     2.087000000
O     2.046000000    -0.486000000     2.040000000
H     1.197000000    -0.311000000     1.634000000
H     2.662000000     0.060000000     1.551000000
O     2.290000000    -3.109000000     1.056000000
H     2.186000000    -2.336000000     1.611000000
H     2.793000000    -2.798000000     0.304000000
O     2.652000000     4.045000000     2.006000000
H     1.718000000     4.123000000     2.201000000
H     3.086000000     4.492000000     2.733000000
O    -0.282000000     6.345000000     3.768000000
H    -0.872000000     5.596000000     3.677000000
H     0.100000000     6.244000000     4.640000000
O     3.939000000    -2.625000000    -1.488000000
H     4.558000000    -1.897000000    -1.534000000
H     3.295000000    -2.435000000    -2.171000000
O     3.130000000    -1.586000000     4.870000000
H     2.664000000    -0.755000000     4.768000000
H     3.877000000    -1.516000000     4.275000000
O     1.141000000    -0.912000000    -7.192000000
H     1.989000000    -0.807000000    -6.761000000
H     1.209000000    -1.748000000    -7.654000000
O     4.262000000     1.264000000    -5.067000000
H     3.628000000     0.886000000    -4.458000000
H     4.683000000     1.966000000    -4.571000000
O    -2.326000000     3.548000000     3.488000000
H    -1.422000000     3.322000000     3.704000000
H    -2.362000000     3.504000000     2.532000000
O    -0.896000000    -1.889000000     6.186000000
H    -0.518000000    -2.036000000     5.320000000
H    -0.295000000    -2.327000000     6.788000000
O    -2.774000000     3.441000000     0.763000000
H    -2.112000000     3.443000000     0.072000000
H    -3.359000000     2.720000000     0.531000000
O     2.546000000     5.350000000    -0.203000000
H     2.540000000     5.039000000     0.702000000
H     2.693000000     4.563000000    -0.727000000
O    -4.251000000     1.922000000     4.745000000
H    -3.770000000     2.409000000     4.076000000
H    -3.895000000     2.240000000     5.575000000
O     1.608000000    -3.883000000    -2.941000000
H     1.476000000    -4.013000000    -3.880000000
H     1.535000000    -2.937000000    -2.818000000
O    -1.762000000     4.522000000    -1.649000000
H    -1.005000000     3.945000000    -1.752000000
H    -1.604000000     5.237000000    -2.266000000
O    -4.297000000     5.510000000     4.294000000
H    -5.088000000     5.354000000     3.779000000
H    -3.716000000     4.785000000     4.067000000
O     4.037000000     1.216000000     0.853000000
H     3.815000000     1.815000000     0.141000000
H     4.948000000     0.973000000     0.687000000
O    -4.926000000    -0.373000000     6.136000000
H    -4.828000000     0.192000000     5.370000000
H    -5.871000000    -0.490000000     6.229000000
O    -4.116000000    -3.266000000     0.888000000
H    -5.041000000    -3.375000000     1.108000000
H    -3.657000000    -3.859000000     1.483000000
