158
-3041.27184
C    -0.840000000    -0.616000000     0.982000000
H    -1.282000000    -1.248000000     1.748000000
C     0.540000000    -0.406000000     1.099000000
H     1.136000000    -0.825000000     1.906000000
C     1.226000000     0.238000000     0.055000000
H     2.286000000     0.287000000    -0.015000000
C     0.458000000     0.745000000    -0.966000000
H     1.054000000     1.104000000    -1.802000000
C    -0.961000000     0.709000000    -0.966000000
H    -1.465000000     1.146000000    -1.824000000
C    -1.608000000    -0.097000000    -0.040000000
C    -3.039000000    -0.455000000    -0.091000000
O    -3.474000000    -1.494000000     0.441000000
O    -3.734000000     0.134000000    -0.881000000
O     0.544000000     2.322000000     4.242000000
H     1.479000000     2.131000000     4.309000000
H     0.198000000     2.137000000     5.115000000
O    -5.583000000    -5.192000000    -2.160000000
H    -5.546000000    -4.412000000    -2.715000000
H    -5.763000000    -4.853000000    -1.283000000
O     3.932000000     5.327000000    -0.561000000
H     3.752000000     5.304000000    -1.501000000
H     4.878000000     5.196000000    -0.496000000
O     2.130000000    -0.722000000    -4.962000000
H     1.826000000     0.184000000    -4.912000000
H     2.828000000    -0.777000000    -4.310000000
O     4.737000000     0.014000000    -0.708000000
H     5.494000000    -0.520000000    -0.465000000
H     4.261000000     0.142000000     0.112000000
O    -3.678000000     2.582000000    -0.375000000
H    -3.705000000     1.689000000    -0.720000000
H    -3.555000000     2.471000000     0.568000000
O     6.607000000     4.488000000     2.187000000
H     6.411000000     4.557000000     1.253000000
H     6.336000000     3.601000000     2.423000000
O    -1.053000000    -0.916000000    -3.992000000
H    -0.499000000    -0.229000000    -4.364000000
H    -0.519000000    -1.305000000    -3.300000000
O    -2.288000000     2.265000000    -5.319000000
H    -2.796000000     3.074000000    -5.267000000
H    -2.793000000     1.631000000    -4.809000000
O    -3.775000000    -2.352000000    -5.100000000
H    -3.886000000    -2.492000000    -4.160000000
H    -3.073000000    -1.704000000    -5.165000000
O    -1.940000000     0.262000000     4.093000000
H    -1.182000000    -0.158000000     4.499000000
H    -2.305000000     0.815000000     4.784000000
O    -7.970000000    -1.868000000     1.891000000
H    -8.771000000    -1.372000000     1.722000000
H    -7.285000000    -1.377000000     1.437000000
O    -4.171000000    -2.736000000     2.961000000
H    -3.913000000    -2.063000000     2.331000000
H    -4.127000000    -3.555000000     2.467000000
O    -6.074000000    -3.551000000     0.098000000
H    -5.689000000    -4.128000000     0.758000000
H    -5.963000000    -2.670000000     0.456000000
O     1.702000000     4.884000000     4.062000000
H     2.412000000     4.532000000     3.525000000
H     1.093000000     4.153000000     4.165000000
O     7.265000000    -0.678000000     1.318000000
H     7.497000000    -1.354000000     1.954000000
H     7.923000000    -0.763000000     0.628000000
O     5.722000000    -3.621000000     0.517000000
H     6.040000000    -2.810000000     0.914000000
H     4.908000000    -3.812000000     0.982000000
O     0.208000000     4.038000000    -1.330000000
H     0.280000000     4.877000000    -0.874000000
H     0.075000000     3.397000000    -0.632000000
O    -6.154000000    -0.706000000     0.283000000
H    -5.218000000    -0.785000000     0.097000000
H    -6.454000000    -0.004000000    -0.295000000
O     3.491000000     0.819000000     2.111000000
H     4.387000000     0.972000000     2.411000000
H     3.022000000     0.529000000     2.893000000
O     3.177000000    -2.985000000     5.363000000
H     2.392000000    -3.510000000     5.205000000
H     3.672000000    -3.483000000     6.013000000
O    -2.453000000     4.039000000    -2.397000000
H    -1.550000000     3.807000000    -2.179000000
H    -2.982000000     3.589000000    -1.737000000
O    -2.623000000     2.104000000     2.146000000
H    -1.750000000     2.358000000     1.846000000
H    -2.464000000     1.404000000     2.779000000
O    -6.541000000     1.027000000     2.607000000
H    -6.406000000     0.454000000     3.361000000
H    -6.235000000     0.515000000     1.858000000
O     2.158000000    -3.430000000    -2.178000000
H     2.440000000    -4.334000000    -2.315000000
H     2.937000000    -2.905000000    -2.362000000
O    -2.075000000    -3.843000000     0.472000000
H    -1.415000000    -3.621000000    -0.184000000
H    -2.582000000    -3.039000000     0.584000000
O     2.201000000     3.114000000    -5.740000000
H     1.944000000     3.749000000    -6.408000000
H     3.130000000     2.956000000    -5.903000000
O    -0.166000000    -2.571000000    -1.407000000
H     0.714000000    -2.773000000    -1.726000000
H    -0.028000000    -1.919000000    -0.721000000
O    -0.569000000    -3.673000000     3.320000000
H    -0.686000000    -3.683000000     2.370000000
H    -1.357000000    -4.094000000     3.663000000
O    -0.077000000     2.828000000     1.807000000
H     0.596000000     2.244000000     1.457000000
H    -0.004000000     2.734000000     2.757000000
O     6.435000000     1.678000000     2.968000000
H     6.489000000     1.469000000     3.901000000
H     6.895000000     0.960000000     2.534000000
O     3.339000000    -3.551000000     2.285000000
H     2.753000000    -4.275000000     2.505000000
H     3.322000000    -2.986000000     3.058000000
O    -6.153000000    -0.017000000    -4.628000000
H    -5.266000000     0.031000000    -4.272000000
H    -6.619000000     0.706000000    -4.209000000
O     7.098000000    -1.375000000    -2.499000000
H     7.249000000    -1.057000000    -3.389000000
H     7.816000000    -1.005000000    -1.987000000
O     0.265000000     1.312000000    -4.785000000
H     0.888000000     1.796000000    -5.328000000
H    -0.542000000     1.825000000    -4.831000000
O     3.245000000    -0.311000000     4.612000000
H     3.440000000    -1.247000000     4.589000000
H     3.651000000    -0.001000000     5.421000000
O     5.071000000     2.215000000    -2.457000000
H     4.231000000     2.636000000    -2.277000000
H     4.998000000     1.352000000    -2.049000000
O     3.856000000    -1.077000000    -3.047000000
H     4.746000000    -0.954000000    -3.378000000
H     3.925000000    -0.907000000    -2.107000000
O    -3.096000000    -2.362000000    -2.325000000
H    -3.408000000    -1.873000000    -1.564000000
H    -2.194000000    -2.595000000    -2.107000000
O     4.058000000     2.835000000     4.335000000
H     4.743000000     2.263000000     3.990000000
H     4.362000000     3.072000000     5.211000000
O     2.800000000     3.606000000     1.766000000
H     3.138000000     2.771000000     2.090000000
H     3.339000000     3.801000000     1.000000000
O     1.468000000    -4.970000000     4.454000000
H     0.812000000    -4.484000000     3.953000000
H     1.132000000    -5.866000000     4.480000000
O    -4.477000000    -5.141000000     1.313000000
H    -3.683000000    -5.018000000     0.794000000
H    -4.352000000    -5.985000000     1.746000000
O    -6.501000000     1.744000000    -1.136000000
H    -5.832000000     2.240000000    -0.664000000
H    -6.271000000     1.849000000    -2.059000000
O     0.434000000    -1.156000000     4.952000000
H     1.337000000    -0.916000000     4.746000000
H     0.290000000    -1.977000000     4.481000000
O    -3.401000000     0.580000000    -3.518000000
H    -3.704000000     0.551000000    -2.611000000
H    -2.613000000     0.038000000    -3.525000000
O     2.591000000     3.188000000    -3.007000000
H     2.300000000     2.778000000    -3.822000000
H     1.819000000     3.652000000    -2.683000000
O    -5.386000000    -0.623000000     4.516000000
H    -5.059000000    -1.434000000     4.126000000
H    -4.600000000    -0.102000000     4.680000000
