158
-2984.52554
C    -0.473000000    -0.967000000     0.976000000
H    -0.688000000    -1.539000000     1.875000000
C     0.841000000    -0.830000000     0.612000000
H     1.609000000    -1.414000000     1.113000000
C     1.184000000     0.140000000    -0.328000000
H     2.260000000     0.290000000    -0.604000000
C     0.220000000     0.840000000    -0.963000000
H     0.410000000     1.654000000    -1.658000000
C    -1.122000000     0.670000000    -0.703000000
H    -1.905000000     1.215000000    -1.224000000
C    -1.516000000    -0.188000000     0.375000000
C    -2.971000000    -0.399000000     0.641000000
O    -3.386000000    -1.235000000     1.423000000
O    -3.703000000     0.436000000     0.229000000
O    -3.637000000     5.365000000     1.908000000
H    -3.993000000     4.483000000     1.795000000
H    -4.009000000     5.868000000     1.183000000
O     6.941000000    -0.635000000    -3.248000000
H     7.133000000     0.294000000    -3.376000000
H     7.757000000    -1.002000000    -2.907000000
O    -5.271000000    -4.829000000    -2.119000000
H    -5.964000000    -4.211000000    -2.354000000
H    -4.691000000    -4.331000000    -1.543000000
O     5.072000000     5.338000000    -0.439000000
H     4.423000000     4.682000000    -0.185000000
H     5.772000000     4.835000000    -0.854000000
O     2.156000000    -1.241000000    -5.165000000
H     1.657000000    -0.425000000    -5.211000000
H     2.983000000    -0.992000000    -4.752000000
O     4.474000000     0.890000000     1.469000000
H     5.370000000     1.139000000     1.694000000
H     4.174000000     0.372000000     2.217000000
O    -4.505000000     2.828000000     1.532000000
H    -5.093000000     2.073000000     1.500000000
H    -3.679000000     2.502000000     1.174000000
O     0.449000000     5.593000000    -4.467000000
H     0.873000000     4.740000000    -4.369000000
H    -0.170000000     5.471000000    -5.187000000
O    -0.110000000    -2.896000000    -4.486000000
H     0.171000000    -1.999000000    -4.666000000
H     0.349000000    -3.133000000    -3.680000000
O    -2.110000000     3.193000000    -3.486000000
H    -1.933000000     3.442000000    -2.579000000
H    -2.538000000     2.340000000    -3.422000000
O    -2.523000000    -1.449000000    -2.573000000
H    -1.685000000    -1.766000000    -2.909000000
H    -2.757000000    -0.727000000    -3.156000000
O    -7.194000000    -2.263000000     2.595000000
H    -6.524000000    -2.686000000     2.057000000
H    -7.041000000    -1.326000000     2.475000000
O    -3.249000000    -0.590000000     4.093000000
H    -3.198000000    -0.687000000     3.142000000
H    -2.912000000    -1.417000000     4.436000000
O    -6.860000000    -3.071000000    -0.253000000
H    -5.930000000    -2.868000000    -0.149000000
H    -7.309000000    -2.255000000    -0.032000000
O    -3.823000000     5.196000000    -3.051000000
H    -3.738000000     5.279000000    -2.101000000
H    -3.232000000     4.479000000    -3.283000000
O    -0.064000000    -5.831000000     1.117000000
H    -0.509000000    -4.983000000     1.131000000
H    -0.629000000    -6.388000000     0.581000000
O     5.366000000    -2.799000000     2.649000000
H     6.209000000    -2.389000000     2.459000000
H     5.288000000    -2.757000000     3.602000000
O     0.629000000     4.864000000    -0.173000000
H    -0.028000000     5.267000000     0.394000000
H     0.827000000     4.027000000     0.247000000
O    -6.074000000     0.207000000     2.044000000
H    -5.286000000     0.189000000     1.501000000
H    -5.896000000     0.880000000     2.701000000
O     4.238000000    -0.042000000    -3.645000000
H     4.019000000     0.067000000    -2.719000000
H     5.100000000    -0.458000000    -3.639000000
O    -1.428000000    -3.927000000    -0.389000000
H    -2.258000000    -3.708000000    -0.812000000
H    -0.771000000    -3.432000000    -0.879000000
O     3.663000000    -0.079000000     3.926000000
H     3.216000000     0.260000000     4.702000000
H     3.712000000    -1.024000000     4.071000000
O     4.504000000     1.860000000    -5.883000000
H     4.393000000     1.269000000    -5.139000000
H     5.316000000     2.331000000    -5.697000000
O    -1.821000000     4.256000000    -1.124000000
H    -0.985000000     4.640000000    -0.861000000
H    -2.144000000     3.822000000    -0.334000000
O    -1.797000000     3.123000000     1.484000000
H    -0.864000000     3.071000000     1.275000000
H    -1.855000000     3.804000000     2.153000000
O    -5.254000000     1.631000000     4.238000000
H    -4.701000000     2.328000000     4.589000000
H    -4.718000000     0.841000000     4.307000000
O     3.353000000    -2.884000000    -0.794000000
H     3.061000000    -3.010000000     0.109000000
H     3.944000000    -2.132000000    -0.751000000
O    -2.751000000    -3.531000000     2.031000000
H    -2.246000000    -3.700000000     1.235000000
H    -3.105000000    -2.651000000     1.907000000
O     5.809000000    -3.040000000    -3.131000000
H     5.432000000    -2.956000000    -2.255000000
H     6.286000000    -2.222000000    -3.266000000
O     0.655000000    -2.462000000    -1.646000000
H     0.584000000    -1.644000000    -1.154000000
H     1.535000000    -2.785000000    -1.448000000
O    -0.911000000    -3.327000000     5.077000000
H    -1.382000000    -3.808000000     4.396000000
H    -1.345000000    -3.580000000     5.892000000
O     0.895000000     2.516000000     1.476000000
H     0.734000000     1.603000000     1.236000000
H     0.889000000     2.517000000     2.433000000
O     6.900000000     0.784000000     3.028000000
H     7.036000000     0.648000000     3.966000000
H     7.115000000    -0.060000000     2.630000000
O     3.425000000    -4.218000000     1.859000000
H     4.245000000    -3.949000000     2.274000000
H     2.767000000    -4.128000000     2.549000000
O    -8.324000000     1.165000000    -1.875000000
H    -8.628000000     0.548000000    -1.208000000
H    -7.372000000     1.072000000    -1.870000000
O     7.492000000     0.410000000    -0.184000000
H     8.155000000     0.823000000    -0.737000000
H     7.936000000    -0.347000000     0.198000000
O     0.480000000     1.075000000    -4.839000000
H     0.074000000     1.844000000    -4.439000000
H     0.657000000     1.340000000    -5.742000000
O     4.957000000    -0.566000000    -0.847000000
H     5.800000000    -0.132000000    -0.981000000
H     4.688000000    -0.301000000     0.032000000
O    -3.991000000    -2.737000000    -0.873000000
H    -3.970000000    -2.113000000    -0.148000000
H    -3.626000000    -2.255000000    -1.615000000
O     3.289000000     3.048000000     3.260000000
H     4.068000000     3.594000000     3.361000000
H     3.622000000     2.150000000     3.276000000
O    -3.797000000     0.732000000    -3.944000000
H    -4.332000000     1.475000000    -3.665000000
H    -3.627000000     0.894000000    -4.872000000
O     1.935000000    -3.744000000     4.738000000
H     1.058000000    -4.128000000     4.758000000
H     2.251000000    -3.822000000     5.638000000
O    -3.211000000    -6.188000000     3.374000000
H    -3.460000000    -5.422000000     2.857000000
H    -3.445000000    -6.936000000     2.823000000
O    -6.351000000     3.932000000    -0.666000000
H    -5.919000000     4.784000000    -0.604000000
H    -5.734000000     3.322000000    -0.261000000
O     3.210000000    -3.839000000    -4.869000000
H     2.825000000    -2.962000000    -4.857000000
H     4.154000000    -3.686000000    -4.902000000
O    -5.560000000     0.694000000    -1.655000000
H    -4.889000000     0.648000000    -0.974000000
H    -5.239000000     0.116000000    -2.348000000
O     3.719000000     3.169000000     0.430000000
H     4.175000000     2.360000000     0.661000000
H     2.808000000     3.009000000     0.676000000
O    -2.720000000     1.586000000     5.832000000
H    -2.896000000     0.700000000     5.515000000
H    -1.814000000     1.758000000     5.576000000
