158
-3034.65472
C    -1.338000000    -0.472000000    -0.370000000
H    -2.376000000    -0.725000000    -0.574000000
C    -0.785000000    -0.560000000     0.882000000
H    -1.377000000    -0.905000000     1.725000000
C     0.465000000    -0.121000000     1.115000000
H     0.826000000    -0.206000000     2.134000000
C     1.343000000     0.266000000     0.073000000
H     2.391000000     0.491000000     0.256000000
C     0.721000000     0.473000000    -1.175000000
H     1.285000000     0.877000000    -2.012000000
C    -0.613000000     0.023000000    -1.436000000
C    -1.236000000     0.301000000    -2.817000000
O    -2.430000000     0.130000000    -2.922000000
O    -0.523000000     0.655000000    -3.742000000
O     1.878000000     2.511000000     2.575000000
H     1.378000000     3.165000000     2.087000000
H     1.214000000     1.990000000     3.027000000
O    -5.896000000    -2.122000000    -0.787000000
H    -5.437000000    -2.735000000    -0.213000000
H    -6.205000000    -2.660000000    -1.515000000
O     6.107000000    -0.174000000     0.493000000
H     5.485000000     0.472000000     0.828000000
H     6.966000000     0.175000000     0.729000000
O    -2.411000000     3.460000000     1.765000000
H    -2.006000000     3.153000000     0.953000000
H    -1.924000000     4.253000000     1.990000000
O    -4.131000000    -1.937000000    -6.051000000
H    -3.195000000    -1.821000000    -5.891000000
H    -4.312000000    -1.394000000    -6.819000000
O     1.110000000     1.229000000    -5.740000000
H     1.920000000     0.731000000    -5.631000000
H     0.540000000     0.917000000    -5.037000000
O    -1.388000000     3.125000000    -5.234000000
H    -0.633000000     3.710000000    -5.302000000
H    -1.036000000     2.323000000    -4.849000000
O     4.472000000    -0.136000000     4.019000000
H     4.825000000     0.379000000     4.745000000
H     3.672000000    -0.528000000     4.370000000
O    -3.701000000     3.025000000    -3.842000000
H    -4.101000000     2.217000000    -4.163000000
H    -2.923000000     3.141000000    -4.388000000
O    -0.693000000     3.509000000    -0.788000000
H    -0.299000000     2.637000000    -0.777000000
H    -0.199000000     4.004000000    -0.135000000
O    -4.911000000     3.769000000     0.117000000
H    -4.503000000     2.918000000    -0.044000000
H    -4.249000000     4.407000000    -0.149000000
O     1.149000000    -4.653000000    -0.121000000
H     0.695000000    -5.280000000     0.441000000
H     1.532000000    -4.019000000     0.486000000
O     0.816000000     4.827000000     1.168000000
H     1.485000000     5.369000000     0.748000000
H     0.200000000     5.456000000     1.543000000
O    -4.340000000     1.145000000    -1.366000000
H    -3.573000000     0.872000000    -1.869000000
H    -4.901000000     1.586000000    -2.005000000
O    -3.526000000    -2.456000000    -3.147000000
H    -3.091000000    -1.605000000    -3.206000000
H    -2.861000000    -3.041000000    -2.785000000
O    -5.742000000    -3.930000000    -2.797000000
H    -4.988000000    -3.464000000    -3.160000000
H    -6.355000000    -4.001000000    -3.528000000
O     0.802000000    -2.193000000    -5.258000000
H     1.210000000    -2.829000000    -5.845000000
H     1.436000000    -2.080000000    -4.550000000
O     2.109000000     3.266000000    -4.195000000
H     2.373000000     3.126000000    -5.104000000
H     1.832000000     2.402000000    -3.890000000
O     2.423000000     5.795000000    -3.020000000
H     2.291000000     4.939000000    -3.429000000
H     1.896000000     5.763000000    -2.222000000
O    -1.730000000    -0.216000000    -8.571000000
H    -1.851000000    -0.437000000    -7.647000000
H    -0.806000000    -0.400000000    -8.742000000
O     2.097000000    -2.233000000     4.845000000
H     2.657000000    -3.007000000     4.903000000
H     2.082000000    -1.881000000     5.736000000
O     4.177000000     1.631000000     1.502000000
H     4.260000000     1.021000000     2.235000000
H     3.376000000     2.121000000     1.686000000
O    -3.081000000     4.640000000    -1.828000000
H    -3.112000000     4.214000000    -2.684000000
H    -2.173000000     4.539000000    -1.543000000
O     2.014000000    -2.175000000    -2.520000000
H     2.537000000    -1.833000000    -1.794000000
H     1.108000000    -1.997000000    -2.267000000
O    -0.627000000    -3.796000000    -2.289000000
H     0.282000000    -3.854000000    -1.992000000
H    -0.814000000    -4.660000000    -2.656000000
O     4.535000000    -2.769000000     1.343000000
H     4.660000000    -1.952000000     0.860000000
H     3.636000000    -2.721000000     1.667000000
O     6.909000000    -1.892000000     3.090000000
H     6.472000000    -2.591000000     3.575000000
H     6.236000000    -1.555000000     2.498000000
O    -4.357000000    -3.025000000     1.934000000
H    -3.744000000    -3.285000000     1.246000000
H    -3.802000000    -2.658000000     2.622000000
O     2.040000000     1.636000000     6.721000000
H     2.564000000     1.787000000     7.507000000
H     1.944000000     0.684000000     6.676000000
O    -2.822000000     0.956000000     3.320000000
H    -3.496000000     0.743000000     2.675000000
H    -2.508000000     1.823000000     3.061000000
O     0.032000000     2.721000000    -7.788000000
H    -0.673000000     3.224000000    -7.381000000
H     0.570000000     2.424000000    -7.054000000
O     1.594000000     4.320000000     4.892000000
H     1.466000000     3.853000000     5.718000000
H     1.727000000     3.627000000     4.244000000
O    -0.027000000     1.460000000     4.284000000
H    -0.350000000     1.269000000     5.165000000
H    -0.808000000     1.429000000     3.731000000
O     5.072000000     3.492000000    -3.259000000
H     4.482000000     3.807000000    -2.574000000
H     4.675000000     3.796000000    -4.075000000
O    -3.759000000    -1.474000000     4.274000000
H    -3.352000000    -0.686000000     3.913000000
H    -3.692000000    -1.365000000     5.223000000
O     3.557000000    -0.062000000    -4.927000000
H     4.164000000     0.388000000    -4.340000000
H     3.255000000    -0.820000000    -4.425000000
O     4.952000000     0.673000000    -2.964000000
H     5.095000000     1.614000000    -2.857000000
H     5.827000000     0.290000000    -2.904000000
O     4.033000000    -0.953000000    -1.180000000
H     4.656000000    -0.529000000    -0.590000000
H     4.213000000    -0.567000000    -2.037000000
O     6.273000000     3.321000000     0.280000000
H     6.705000000     2.549000000    -0.087000000
H     5.519000000     2.970000000     0.753000000
O     1.751000000    -3.307000000     2.170000000
H     0.949000000    -2.786000000     2.136000000
H     2.042000000    -3.241000000     3.079000000
O    -1.502000000    -0.969000000    -5.916000000
H    -1.627000000    -0.573000000    -5.054000000
H    -0.686000000    -1.464000000    -5.837000000
O    -0.985000000    -4.028000000     2.772000000
H    -0.790000000    -4.960000000     2.671000000
H    -1.252000000    -3.743000000     1.899000000
O    -0.790000000     1.237000000     6.900000000
H    -1.226000000     2.003000000     7.274000000
H     0.127000000     1.497000000     6.821000000
O    -0.665000000    -2.931000000     5.316000000
H     0.212000000    -2.738000000     4.987000000
H    -1.044000000    -3.518000000     4.661000000
O    -4.786000000     0.148000000     1.238000000
H    -4.926000000    -0.754000000     0.951000000
H    -4.567000000     0.623000000     0.437000000
O    -4.629000000     0.461000000    -4.562000000
H    -3.878000000     0.540000000    -3.974000000
H    -4.466000000    -0.345000000    -5.051000000
O    -2.089000000    -3.733000000     0.345000000
H    -2.375000000    -4.646000000     0.381000000
H    -1.719000000    -3.632000000    -0.532000000
O    -7.142000000     0.871000000    -2.271000000
H    -7.402000000     0.753000000    -3.185000000
H    -6.388000000     0.293000000    -2.160000000
