158
-3027.20485
C    -0.222000000    -1.465000000     0.362000000
H    -0.393000000    -2.494000000     0.667000000
C     0.295000000    -0.488000000     1.198000000
H     0.369000000    -0.815000000     2.232000000
C     0.460000000     0.803000000     0.758000000
H     0.746000000     1.607000000     1.488000000
C     0.136000000     1.208000000    -0.509000000
H     0.321000000     2.267000000    -0.666000000
C    -0.336000000     0.287000000    -1.371000000
H    -0.566000000     0.628000000    -2.377000000
C    -0.592000000    -1.054000000    -0.976000000
C    -1.226000000    -2.031000000    -1.901000000
O    -1.477000000    -3.137000000    -1.614000000
O    -1.704000000    -1.662000000    -2.928000000
O     4.093000000     6.320000000     1.649000000
H     4.781000000     6.973000000     1.777000000
H     3.892000000     6.365000000     0.714000000
O    -0.325000000     1.999000000     5.249000000
H     0.440000000     2.374000000     4.812000000
H    -1.016000000     2.649000000     5.123000000
O     0.485000000     4.327000000    -3.467000000
H     1.272000000     4.344000000    -2.922000000
H    -0.240000000     4.330000000    -2.841000000
O    -5.720000000    -3.078000000    -2.731000000
H    -6.632000000    -2.786000000    -2.759000000
H    -5.736000000    -3.951000000    -3.122000000
O     2.704000000     0.270000000     5.233000000
H     3.189000000     1.007000000     4.862000000
H     2.276000000    -0.138000000     4.480000000
O     0.186000000     4.862000000     1.946000000
H     0.707000000     4.554000000     2.687000000
H     0.088000000     5.802000000     2.096000000
O    -3.364000000    -5.976000000    -5.435000000
H    -2.759000000    -5.463000000    -4.900000000
H    -3.558000000    -6.748000000    -4.903000000
O    -0.309000000    -1.001000000    -5.419000000
H     0.507000000    -0.686000000    -5.031000000
H    -0.929000000    -1.021000000    -4.689000000
O     3.374000000     6.285000000    -1.066000000
H     2.730000000     6.681000000    -1.653000000
H     2.958000000     5.477000000    -0.765000000
O    -4.148000000     4.003000000    -2.132000000
H    -4.599000000     4.141000000    -1.299000000
H    -4.237000000     3.065000000    -2.299000000
O    -0.347000000     3.721000000    -6.100000000
H    -0.094000000     3.725000000    -5.177000000
H    -1.278000000     3.942000000    -6.095000000
O     3.151000000     2.932000000     5.819000000
H     2.730000000     2.577000000     6.602000000
H     4.058000000     3.086000000     6.083000000
O     3.529000000     1.919000000    -0.885000000
H     3.358000000     1.122000000    -1.388000000
H     4.254000000     1.685000000    -0.306000000
O    -2.269000000     4.904000000     0.779000000
H    -1.561000000     4.486000000     1.270000000
H    -1.864000000     5.168000000    -0.047000000
O    -3.784000000    -2.834000000     0.214000000
H    -3.997000000    -3.324000000    -0.580000000
H    -2.909000000    -3.138000000     0.456000000
O     0.400000000    -7.281000000    -0.455000000
H     0.738000000    -6.385000000    -0.473000000
H     0.914000000    -7.744000000    -1.116000000
O    -4.422000000     1.221000000    -1.924000000
H    -3.958000000     0.493000000    -2.338000000
H    -4.525000000     0.951000000    -1.011000000
O    -3.595000000    -5.054000000    -1.348000000
H    -3.178000000    -5.911000000    -1.255000000
H    -2.879000000    -4.464000000    -1.586000000
O    -6.197000000    -5.883000000    -1.230000000
H    -6.548000000    -5.298000000    -0.559000000
H    -5.286000000    -5.609000000    -1.334000000
O     6.104000000     0.915000000     2.250000000
H     6.448000000     1.049000000     1.367000000
H     5.431000000     0.242000000     2.145000000
O    -5.026000000    -3.188000000    -6.222000000
H    -4.908000000    -2.694000000    -5.411000000
H    -4.855000000    -4.097000000    -5.976000000
O     0.514000000    -0.259000000     6.797000000
H     1.405000000    -0.203000000     6.452000000
H     0.002000000     0.324000000     6.237000000
O    -2.934000000    -0.007000000    -6.077000000
H    -3.409000000    -0.458000000    -5.380000000
H    -3.153000000     0.917000000    -5.957000000
O     0.482000000    -4.585000000    -2.874000000
H    -0.052000000    -4.415000000    -3.649000000
H    -0.052000000    -4.277000000    -2.142000000
O     2.030000000     3.228000000     3.436000000
H     2.746000000     3.184000000     2.803000000
H     2.450000000     3.079000000     4.283000000
O    -3.573000000     2.428000000    -5.230000000
H    -3.390000000     2.842000000    -4.386000000
H    -4.280000000     2.951000000    -5.605000000
O    -2.608000000     1.089000000     1.325000000
H    -1.751000000     1.220000000     0.919000000
H    -2.409000000     0.828000000     2.224000000
O     2.775000000    -0.975000000    -1.240000000
H     2.525000000    -0.784000000    -2.144000000
H     1.954000000    -0.939000000    -0.751000000
O    -4.658000000    -0.296000000     0.391000000
H    -3.825000000    -0.021000000     0.776000000
H    -4.570000000    -1.243000000     0.282000000
O     2.673000000    -3.342000000     1.752000000
H     1.852000000    -3.554000000     2.195000000
H     3.354000000    -3.676000000     2.337000000
O     1.177000000     4.971000000     6.215000000
H     0.861000000     5.141000000     5.328000000
H     1.996000000     4.492000000     6.090000000
O    -2.293000000     3.953000000     4.037000000
H    -2.793000000     4.741000000     4.251000000
H    -2.202000000     3.978000000     3.084000000
O    -2.651000000     0.133000000     3.838000000
H    -1.874000000     0.130000000     4.397000000
H    -3.074000000    -0.708000000     4.013000000
O     2.310000000     0.031000000    -3.995000000
H     2.947000000    -0.600000000    -4.332000000
H     2.544000000     0.857000000    -4.419000000
O    -1.024000000     5.857000000    -1.183000000
H    -0.132000000     6.186000000    -1.298000000
H    -1.577000000     6.634000000    -1.261000000
O     1.812000000     4.314000000    -0.441000000
H     1.231000000     4.442000000     0.309000000
H     1.984000000     3.373000000    -0.452000000
O     2.222000000    -5.170000000    -0.383000000
H     2.512000000    -4.881000000    -1.249000000
H     2.563000000    -4.507000000     0.217000000
O     3.774000000    -0.807000000     1.200000000
H     3.316000000    -1.491000000     1.689000000
H     3.321000000    -0.770000000     0.358000000
O    -1.658000000    -4.137000000    -4.380000000
H    -1.886000000    -3.604000000    -5.142000000
H    -1.700000000    -3.529000000    -3.641000000
O     3.226000000     3.924000000    -2.979000000
H     3.448000000     3.607000000    -2.103000000
H     4.072000000     4.079000000    -3.399000000
O    -1.496000000    -3.409000000     5.114000000
H    -2.350000000    -3.105000000     4.805000000
H    -1.493000000    -3.201000000     6.049000000
O     3.110000000    -4.035000000    -2.979000000
H     2.166000000    -4.134000000    -3.102000000
H     3.476000000    -4.877000000    -3.249000000
O     0.451000000    -3.822000000     3.415000000
H    -0.166000000    -3.343000000     3.968000000
H    -0.100000000    -4.385000000     2.872000000
O     5.107000000     3.233000000     3.634000000
H     5.834000000     3.775000000     3.328000000
H     5.458000000     2.343000000     3.641000000
O    -1.899000000    -2.630000000    -6.940000000
H    -2.689000000    -2.090000000    -6.980000000
H    -1.196000000    -2.012000000    -6.742000000
O    -4.089000000    -1.451000000    -4.156000000
H    -4.635000000    -1.969000000    -3.565000000
H    -3.213000000    -1.492000000    -3.771000000
O    -1.223000000    -5.675000000     1.958000000
H    -1.976000000    -5.800000000     2.536000000
H    -1.462000000    -6.132000000     1.152000000
O    -0.133000000     1.354000000    -7.281000000
H    -0.247000000     2.209000000    -6.867000000
H    -0.411000000     0.726000000    -6.615000000
