158
-3012.89435
C     0.380000000    -1.456000000    -0.190000000
H     0.446000000    -2.540000000    -0.131000000
C     0.445000000    -0.660000000     1.021000000
H     0.823000000    -1.192000000     1.891000000
C     0.128000000     0.680000000     1.077000000
H     0.224000000     1.260000000     1.989000000
C    -0.210000000     1.287000000    -0.105000000
H    -0.442000000     2.349000000    -0.079000000
C    -0.218000000     0.540000000    -1.344000000
H    -0.601000000     1.065000000    -2.214000000
C     0.081000000    -0.865000000    -1.373000000
C    -0.256000000    -1.586000000    -2.578000000
O    -0.372000000    -2.802000000    -2.549000000
O    -0.309000000    -1.061000000    -3.679000000
O    -0.351000000     0.693000000     5.444000000
H    -0.412000000     1.609000000     5.173000000
H     0.569000000     0.464000000     5.312000000
O     2.640000000     1.346000000    -3.238000000
H     3.139000000     1.809000000    -3.911000000
H     2.685000000     1.918000000    -2.471000000
O    -3.661000000    -4.787000000    -3.274000000
H    -4.573000000    -4.762000000    -3.562000000
H    -3.301000000    -5.573000000    -3.684000000
O     2.769000000     0.575000000     4.921000000
H     2.711000000     1.527000000     4.842000000
H     2.765000000     0.259000000     4.018000000
O     2.184000000     3.867000000     1.157000000
H     3.019000000     4.286000000     1.366000000
H     1.614000000     4.589000000     0.892000000
O    -4.254000000     3.376000000     5.331000000
H    -3.840000000     4.100000000     5.801000000
H    -3.626000000     2.656000000     5.399000000
O    -0.781000000    -6.478000000    -4.842000000
H    -0.636000000    -5.543000000    -4.987000000
H     0.072000000    -6.813000000    -4.567000000
O     1.398000000    -1.549000000    -5.790000000
H     2.242000000    -1.443000000    -5.351000000
H     0.750000000    -1.353000000    -5.114000000
O     0.231000000     1.340000000    -4.568000000
H     1.020000000     1.418000000    -4.032000000
H    -0.179000000     0.527000000    -4.274000000
O     0.487000000     6.169000000     1.110000000
H     0.112000000     6.719000000     0.422000000
H     0.662000000     6.774000000     1.831000000
O     2.716000000    -6.548000000    -4.350000000
H     2.395000000    -7.150000000    -3.679000000
H     2.312000000    -5.708000000    -4.132000000
O    -1.602000000     4.575000000     1.500000000
H    -0.947000000     5.131000000     1.077000000
H    -2.397000000     4.707000000     0.983000000
O    -2.040000000    -4.522000000    -1.097000000
H    -2.865000000    -4.445000000    -1.576000000
H    -1.400000000    -4.071000000    -1.647000000
O     1.601000000    -5.197000000     0.867000000
H     0.896000000    -5.086000000     1.504000000
H     2.349000000    -4.744000000     1.256000000
O    -3.200000000     1.125000000    -5.261000000
H    -3.341000000     1.920000000    -4.747000000
H    -2.905000000     0.476000000    -4.622000000
O     0.701000000    -5.873000000    -1.669000000
H     1.035000000    -5.542000000    -0.834000000
H     0.649000000    -5.098000000    -2.229000000
O    -4.082000000     6.396000000     3.093000000
H    -3.444000000     7.098000000     2.968000000
H    -3.625000000     5.604000000     2.810000000
O     1.774000000     4.132000000    -2.787000000
H     1.576000000     5.059000000    -2.658000000
H     1.548000000     3.963000000    -3.702000000
O    -0.727000000     6.121000000     4.802000000
H    -0.562000000     6.758000000     4.106000000
H     0.128000000     5.729000000     4.975000000
O    -0.299000000     1.275000000     8.468000000
H    -0.831000000     2.060000000     8.599000000
H    -0.356000000     1.100000000     7.529000000
O    -1.585000000    -3.623000000     4.192000000
H    -2.070000000    -3.038000000     4.774000000
H    -2.021000000    -3.532000000     3.344000000
O    -4.552000000     3.037000000     2.611000000
H    -3.968000000     2.468000000     3.113000000
H    -4.679000000     3.803000000     3.170000000
O     2.078000000    -3.851000000    -3.026000000
H     2.603000000    -3.099000000    -3.302000000
H     1.274000000    -3.467000000    -2.676000000
O     2.307000000     2.956000000     3.887000000
H     2.593000000     3.440000000     3.112000000
H     1.354000000     2.918000000     3.807000000
O    -3.890000000     3.635000000    -3.671000000
H    -3.912000000     4.502000000    -4.076000000
H    -3.977000000     3.807000000    -2.733000000
O    -2.680000000    -0.370000000     2.354000000
H    -1.829000000    -0.422000000     1.919000000
H    -2.511000000     0.134000000     3.150000000
O     1.300000000    -7.773000000     0.490000000
H     2.226000000    -7.917000000     0.686000000
H     1.207000000    -6.821000000     0.457000000
O     3.377000000    -0.635000000    -0.613000000
H     3.482000000     0.258000000    -0.943000000
H     2.495000000    -0.650000000    -0.240000000
O    -4.541000000    -0.049000000    -2.843000000
H    -4.826000000    -0.933000000    -3.072000000
H    -5.295000000     0.506000000    -3.045000000
O    -5.514000000     0.255000000     2.337000000
H    -4.685000000    -0.187000000     2.156000000
H    -5.308000000     1.188000000     2.270000000
O     3.488000000    -3.935000000     2.490000000
H     2.819000000    -4.114000000     3.151000000
H     4.318000000    -4.060000000     2.949000000
O    -0.305000000     3.336000000     3.887000000
H    -0.672000000     4.107000000     4.320000000
H    -0.548000000     3.439000000     2.967000000
O     0.904000000     4.111000000    -5.361000000
H     1.370000000     4.565000000    -6.063000000
H     0.303000000     3.520000000    -5.815000000
O    -2.914000000     0.730000000     4.950000000
H    -1.976000000     0.758000000     5.137000000
H    -3.220000000    -0.068000000     5.381000000
O    -3.077000000     5.359000000    -0.849000000
H    -3.562000000     5.968000000    -1.407000000
H    -2.494000000     4.897000000    -1.450000000
O     3.183000000    -1.454000000    -3.772000000
H     4.130000000    -1.594000000    -3.758000000
H     3.072000000    -0.538000000    -3.516000000
O    -1.363000000     3.753000000    -2.102000000
H    -0.462000000     3.955000000    -1.849000000
H    -1.290000000     2.962000000    -2.636000000
O     3.658000000     2.121000000    -0.691000000
H     3.147000000     2.616000000    -0.050000000
H     4.364000000     1.725000000    -0.180000000
O     3.325000000    -0.871000000     2.771000000
H     3.184000000    -1.817000000     2.814000000
H     2.960000000    -0.613000000     1.925000000
O    -0.023000000    -4.066000000    -5.421000000
H     0.648000000    -3.445000000    -5.706000000
H    -0.561000000    -3.570000000    -4.805000000
O    -1.304000000    -7.486000000     0.377000000
H    -1.302000000    -6.756000000    -0.243000000
H    -0.431000000    -7.870000000     0.297000000
O     0.201000000    -3.419000000     6.361000000
H    -0.324000000    -3.085000000     5.634000000
H    -0.304000000    -4.157000000     6.703000000
O     4.263000000    -5.561000000    -1.820000000
H     3.422000000    -5.121000000    -1.944000000
H     4.385000000    -6.077000000    -2.617000000
O    -2.676000000    -4.168000000     1.584000000
H    -3.567000000    -4.137000000     1.236000000
H    -2.119000000    -3.954000000     0.836000000
O    -0.549000000    -1.863000000    -7.889000000
H    -1.344000000    -1.331000000    -7.934000000
H    -0.184000000    -1.675000000    -7.024000000
O    -2.926000000    -1.986000000    -4.234000000
H    -3.065000000    -2.869000000    -3.893000000
H    -2.049000000    -1.748000000    -3.933000000
O     0.057000000    -5.054000000     2.922000000
H    -0.594000000    -5.682000000     2.612000000
H    -0.453000000    -4.387000000     3.383000000
O    -0.633000000     2.101000000    -6.960000000
H    -0.280000000     1.967000000    -6.080000000
H    -0.942000000     1.236000000    -7.228000000
