158
-3013.62161
C    -1.282000000    -0.584000000     0.428000000
H    -2.217000000    -0.983000000     0.813000000
C    -0.172000000    -0.333000000     1.253000000
H    -0.167000000    -0.595000000     2.308000000
C     0.995000000     0.157000000     0.736000000
H     1.856000000     0.285000000     1.256000000
C     1.034000000     0.620000000    -0.589000000
H     1.932000000     1.145000000    -0.907000000
C    -0.013000000     0.278000000    -1.446000000
H     0.066000000     0.483000000    -2.510000000
C    -1.223000000    -0.295000000    -0.924000000
C    -2.410000000    -0.532000000    -1.808000000
O    -3.363000000    -1.118000000    -1.373000000
O    -2.534000000    -0.129000000    -2.979000000
O    -0.236000000     1.843000000     5.158000000
H    -0.873000000     2.469000000     4.814000000
H    -0.762000000     1.095000000     5.439000000
O     0.646000000     4.351000000     4.028000000
H     0.731000000     3.422000000     4.241000000
H     0.321000000     4.362000000     3.128000000
O     4.243000000     3.450000000     4.918000000
H     3.473000000     3.119000000     5.381000000
H     4.635000000     2.673000000     4.520000000
O     2.917000000    -2.028000000     2.314000000
H     2.367000000    -1.316000000     2.639000000
H     3.700000000    -1.592000000     1.978000000
O    -6.140000000    -3.189000000    -3.112000000
H    -5.235000000    -2.929000000    -3.287000000
H    -6.139000000    -3.453000000    -2.191000000
O     0.283000000    -0.096000000    -5.022000000
H     0.685000000    -0.653000000    -4.355000000
H     0.865000000     0.661000000    -5.085000000
O     2.221000000     2.304000000     6.832000000
H     1.452000000     1.940000000     6.395000000
H     1.910000000     3.119000000     7.227000000
O    -2.386000000     2.786000000    -2.636000000
H    -1.455000000     2.695000000    -2.434000000
H    -2.627000000     1.952000000    -3.038000000
O     2.283000000    -1.095000000     6.514000000
H     2.883000000    -0.819000000     7.206000000
H     2.361000000    -2.049000000     6.495000000
O    -5.182000000    -1.247000000    -5.537000000
H    -5.277000000    -0.444000000    -5.025000000
H    -4.246000000    -1.446000000    -5.499000000
O    -5.241000000     2.958000000    -5.736000000
H    -5.842000000     3.697000000    -5.641000000
H    -5.425000000     2.400000000    -4.981000000
O    -1.373000000     2.498000000     1.028000000
H    -1.204000000     1.562000000     0.918000000
H    -1.807000000     2.564000000     1.879000000
O    -0.413000000    -5.149000000    -0.437000000
H     0.199000000    -5.594000000    -1.024000000
H     0.126000000    -4.515000000     0.036000000
O    -5.190000000     0.182000000    -0.121000000
H    -4.452000000    -0.321000000    -0.464000000
H    -4.916000000     1.096000000    -0.202000000
O    -5.728000000    -2.598000000    -0.238000000
H    -5.519000000    -1.757000000    -0.644000000
H    -4.905000000    -3.086000000    -0.260000000
O     5.295000000    -0.811000000     1.466000000
H     5.939000000    -1.290000000     1.987000000
H     5.513000000    -1.025000000     0.559000000
O    -1.169000000    -3.964000000    -4.377000000
H    -0.665000000    -4.329000000    -5.105000000
H    -0.508000000    -3.613000000    -3.781000000
O     2.466000000     1.408000000    -3.817000000
H     3.188000000     1.633000000    -3.231000000
H     2.758000000     0.613000000    -4.263000000
O     0.407000000     3.080000000    -3.408000000
H     1.061000000     2.486000000    -3.778000000
H     0.763000000     3.327000000    -2.555000000
O    -7.278000000    -0.889000000    -2.980000000
H    -6.774000000    -1.684000000    -3.154000000
H    -7.974000000    -0.898000000    -3.637000000
O     5.354000000    -1.754000000    -0.977000000
H     6.275000000    -1.500000000    -1.039000000
H     5.355000000    -2.699000000    -1.129000000
O     2.085000000     3.793000000    -1.106000000
H     2.581000000     3.338000000    -0.425000000
H     2.551000000     4.620000000    -1.230000000
O     2.171000000     0.395000000     4.200000000
H     2.196000000    -0.196000000     4.953000000
H     1.375000000     0.911000000     4.327000000
O    -3.206000000     5.115000000    -4.150000000
H    -3.244000000     4.189000000    -3.914000000
H    -2.420000000     5.442000000    -3.713000000
O    -4.199000000     2.749000000    -0.513000000
H    -3.853000000     2.767000000    -1.405000000
H    -3.423000000     2.802000000     0.046000000
O     0.584000000    -2.790000000    -2.747000000
H     1.014000000    -3.571000000    -2.398000000
H     1.285000000    -2.142000000    -2.816000000
O    -3.007000000    -3.717000000    -0.363000000
H    -2.094000000    -3.991000000    -0.453000000
H    -3.006000000    -2.794000000    -0.614000000
O     4.633000000    -4.559000000     2.427000000
H     4.262000000    -3.678000000     2.476000000
H     3.901000000    -5.139000000     2.634000000
O    -2.468000000    -0.888000000    -5.601000000
H    -1.610000000    -0.584000000    -5.897000000
H    -2.442000000    -0.787000000    -4.649000000
O    -1.232000000    -0.575000000     6.005000000
H    -0.595000000    -1.289000000     6.012000000
H    -2.048000000    -0.983000000     5.715000000
O     4.492000000     1.722000000    -2.151000000
H     4.868000000     2.447000000    -1.651000000
H     4.631000000     0.953000000    -1.599000000
O     2.816000000    -1.148000000    -3.083000000
H     3.627000000    -1.541000000    -3.406000000
H     2.935000000    -1.099000000    -2.134000000
O     1.013000000    -2.932000000     0.338000000
H     1.670000000    -2.481000000     0.868000000
H     0.759000000    -2.290000000    -0.325000000
O    -1.265000000     3.288000000    -5.558000000
H    -1.128000000     2.699000000    -4.816000000
H    -0.571000000     3.942000000    -5.476000000
O     4.410000000     1.299000000     2.919000000
H     4.821000000     0.589000000     2.427000000
H     3.585000000     0.929000000     3.231000000
O     1.846000000    -5.316000000     3.085000000
H     1.841000000    -5.815000000     2.267000000
H     1.105000000    -4.715000000     3.004000000
O    -3.534000000    -2.981000000    -3.494000000
H    -3.148000000    -2.170000000    -3.164000000
H    -2.803000000    -3.445000000    -3.902000000
O     4.318000000     2.826000000     0.618000000
H     4.202000000     2.502000000     1.511000000
H     4.973000000     3.520000000     0.698000000
O    -0.813000000    -4.209000000     3.793000000
H    -1.208000000    -5.066000000     3.633000000
H    -1.425000000    -3.586000000     3.400000000
O    -4.218000000    -5.911000000    -1.370000000
H    -3.599000000    -6.575000000    -1.674000000
H    -3.682000000    -5.293000000    -0.873000000
O    -0.150000000    -3.249000000     6.205000000
H     0.767000000    -3.424000000     6.415000000
H    -0.291000000    -3.687000000     5.365000000
O     7.282000000     2.067000000     0.962000000
H     8.021000000     1.504000000     0.731000000
H     6.580000000     1.458000000     1.193000000
O    -5.181000000    -2.749000000     2.659000000
H    -4.471000000    -3.386000000     2.577000000
H    -5.483000000    -2.610000000     1.761000000
O     0.923000000    -1.140000000    -7.393000000
H     0.722000000    -0.914000000    -6.485000000
H     0.911000000    -2.097000000    -7.410000000
O     0.127000000     4.655000000     1.397000000
H     0.817000000     4.781000000     0.745000000
H    -0.438000000     3.981000000     1.020000000
O    -4.839000000     0.858000000    -3.580000000
H    -4.041000000     0.436000000    -3.263000000
H    -5.480000000     0.710000000    -2.885000000
O    -3.044000000    -4.871000000     2.234000000
H    -3.234000000    -5.735000000     1.868000000
H    -2.472000000    -4.458000000     1.588000000
O    -7.685000000    -0.014000000     1.002000000
H    -8.005000000     0.531000000     0.284000000
H    -6.749000000    -0.115000000     0.828000000
