158
-3043.99063
C    -0.939000000    -1.045000000    -0.009000000
H    -1.495000000    -1.978000000     0.000000000
C     0.404000000    -1.188000000     0.175000000
H     0.745000000    -2.208000000     0.334000000
C     1.227000000    -0.117000000     0.139000000
H     2.279000000    -0.266000000     0.184000000
C     0.658000000     1.158000000    -0.073000000
H     1.259000000     2.064000000    -0.047000000
C    -0.744000000     1.271000000    -0.173000000
H    -1.178000000     2.222000000    -0.470000000
C    -1.537000000     0.157000000    -0.302000000
C    -2.999000000     0.206000000    -0.679000000
O    -3.764000000    -0.542000000    -0.151000000
O    -3.461000000     1.072000000    -1.346000000
O    -7.373000000    -2.748000000     2.239000000
H    -6.420000000    -2.785000000     2.313000000
H    -7.595000000    -1.843000000     2.456000000
O    -0.501000000     0.277000000     2.843000000
H    -1.313000000    -0.198000000     3.022000000
H    -0.178000000    -0.101000000     2.026000000
O     6.920000000     1.841000000    -1.543000000
H     7.652000000     2.031000000    -0.957000000
H     7.017000000     2.470000000    -2.259000000
O     7.327000000    -0.830000000     2.150000000
H     8.158000000    -1.197000000     2.450000000
H     7.375000000    -0.877000000     1.195000000
O    -6.920000000    -3.109000000    -0.697000000
H    -6.079000000    -3.061000000    -0.243000000
H    -7.320000000    -2.252000000    -0.552000000
O     5.436000000     3.258000000     0.215000000
H     5.880000000     2.777000000    -0.484000000
H     5.719000000     2.825000000     1.021000000
O    -6.632000000     3.512000000    -0.102000000
H    -5.863000000     3.870000000    -0.544000000
H    -6.449000000     2.576000000    -0.023000000
O    -2.908000000    -3.439000000    -2.969000000
H    -3.030000000    -3.699000000    -2.056000000
H    -2.058000000    -2.999000000    -2.981000000
O     1.874000000    -4.103000000    -1.958000000
H     1.376000000    -4.916000000    -2.046000000
H     2.330000000    -4.191000000    -1.121000000
O    -3.817000000     5.652000000    -2.642000000
H    -3.929000000     4.857000000    -2.120000000
H    -4.663000000     6.096000000    -2.588000000
O     0.013000000    -2.421000000    -2.913000000
H     0.170000000    -1.659000000    -2.355000000
H     0.562000000    -3.110000000    -2.539000000
O    -0.190000000     2.843000000     3.328000000
H     0.088000000     1.946000000     3.148000000
H    -0.625000000     2.793000000     4.179000000
O    -7.142000000     0.054000000     2.281000000
H    -6.342000000     0.189000000     2.788000000
H    -6.871000000     0.170000000     1.370000000
O    -4.376000000     0.694000000     2.513000000
H    -4.304000000     0.490000000     1.580000000
H    -3.837000000     1.476000000     2.630000000
O     3.394000000    -2.376000000    -3.800000000
H     2.815000000    -1.712000000    -4.175000000
H     2.802000000    -3.004000000    -3.386000000
O     6.448000000     1.575000000     2.685000000
H     5.677000000     1.383000000     3.220000000
H     6.849000000     0.720000000     2.529000000
O     4.759000000    -4.018000000     3.085000000
H     4.937000000    -3.767000000     2.178000000
H     5.155000000    -3.321000000     3.608000000
O    -2.356000000     4.662000000     0.567000000
H    -1.410000000     4.631000000     0.708000000
H    -2.531000000     5.566000000     0.309000000
O    -6.210000000     0.579000000    -0.216000000
H    -5.326000000     0.244000000    -0.373000000
H    -6.759000000     0.104000000    -0.840000000
O    -5.478000000    -4.490000000    -3.059000000
H    -4.678000000    -3.969000000    -2.989000000
H    -5.759000000    -4.620000000    -2.153000000
O     3.251000000     1.623000000    -1.907000000
H     2.423000000     1.544000000    -2.380000000
H     3.626000000     0.742000000    -1.933000000
O     0.396000000    -5.950000000    -0.740000000
H     0.182000000    -6.872000000    -0.601000000
H     0.903000000    -5.703000000     0.034000000
O     5.463000000     0.855000000     5.035000000
H     4.803000000     1.548000000     5.000000000
H     5.360000000     0.471000000     5.905000000
O     2.467000000     6.708000000     0.191000000
H     2.563000000     7.415000000     0.829000000
H     2.913000000     5.962000000     0.592000000
O     7.529000000    -1.041000000    -0.530000000
H     6.734000000    -0.838000000    -1.023000000
H     8.165000000    -1.298000000    -1.197000000
O     0.760000000    -1.751000000     5.116000000
H    -0.028000000    -1.209000000     5.071000000
H     1.467000000    -1.130000000     5.291000000
O    -4.131000000     3.502000000    -1.074000000
H    -3.870000000     2.600000000    -1.260000000
H    -3.634000000     3.739000000    -0.290000000
O     2.627000000    -4.998000000     0.920000000
H     3.499000000    -4.603000000     0.891000000
H     2.481000000    -5.187000000     1.847000000
O    -4.690000000    -2.704000000     0.929000000
H    -3.912000000    -3.216000000     0.709000000
H    -4.576000000    -1.879000000     0.455000000
O     3.879000000     4.323000000    -2.241000000
H     4.489000000     4.690000000    -1.601000000
H     3.826000000     3.394000000    -2.016000000
O     0.806000000     1.113000000    -3.504000000
H     0.628000000     1.976000000    -3.878000000
H    -0.053000000     0.696000000    -3.442000000
O     0.114000000     3.886000000    -3.866000000
H     0.733000000     3.930000000    -4.594000000
H     0.181000000     4.742000000    -3.443000000
O    -2.199000000    -5.290000000     2.245000000
H    -2.636000000    -6.052000000     1.862000000
H    -2.884000000    -4.850000000     2.749000000
O    -2.747000000     2.771000000     2.319000000
H    -2.647000000     3.518000000     1.729000000
H    -1.893000000     2.683000000     2.741000000
O    -7.836000000     2.515000000    -2.632000000
H    -7.524000000     3.287000000    -2.159000000
H    -7.082000000     2.229000000    -3.147000000
O     5.249000000    -0.788000000    -2.091000000
H     4.801000000    -1.341000000    -2.731000000
H     5.810000000    -0.219000000    -2.617000000
O    -2.006000000     0.925000000    -3.544000000
H    -2.082000000     1.856000000    -3.755000000
H    -2.567000000     0.807000000    -2.777000000
O     5.745000000    -1.994000000     4.468000000
H     6.344000000    -1.722000000     3.773000000
H     5.306000000    -1.187000000     4.735000000
O     5.063000000    -3.798000000     0.218000000
H     5.463000000    -4.260000000    -0.519000000
H     5.497000000    -2.944000000     0.229000000
O    -4.912000000    -1.152000000    -2.896000000
H    -4.732000000    -0.832000000    -2.012000000
H    -4.190000000    -1.750000000    -3.087000000
O    -2.046000000    -0.616000000    -5.785000000
H    -1.964000000    -0.104000000    -4.981000000
H    -2.886000000    -0.347000000    -6.157000000
O    -2.495000000    -4.604000000    -0.585000000
H    -1.549000000    -4.682000000    -0.459000000
H    -2.801000000    -5.506000000    -0.673000000
O     1.664000000     4.981000000     3.448000000
H     1.014000000     4.289000000     3.566000000
H     2.225000000     4.665000000     2.740000000
O    -2.741000000     3.814000000    -4.324000000
H    -3.264000000     4.369000000    -3.746000000
H    -1.974000000     4.346000000    -4.538000000
O     0.105000000    -4.291000000     3.872000000
H    -0.676000000    -4.639000000     3.442000000
H     0.184000000    -3.397000000     3.538000000
O    -2.773000000    -1.028000000     3.703000000
H    -3.579000000    -0.564000000     3.475000000
H    -2.967000000    -1.948000000     3.523000000
O    -5.426000000     1.411000000    -3.372000000
H    -4.768000000     1.740000000    -2.759000000
H    -5.312000000     0.461000000    -3.360000000
O     3.092000000     4.112000000     1.149000000
H     3.992000000     3.978000000     0.851000000
H     2.553000000     3.685000000     0.483000000
