158
-3043.18019
C    -1.174000000    -0.572000000     0.788000000
H    -1.970000000    -0.878000000     1.462000000
C     0.195000000    -0.768000000     1.096000000
H     0.473000000    -1.077000000     2.100000000
C     1.175000000    -0.208000000     0.318000000
H     2.146000000    -0.236000000     0.731000000
C     0.855000000     0.317000000    -0.926000000
H     1.671000000     0.566000000    -1.599000000
C    -0.471000000     0.372000000    -1.319000000
H    -0.752000000     0.840000000    -2.258000000
C    -1.492000000     0.021000000    -0.470000000
C    -2.914000000     0.343000000    -0.843000000
O    -3.939000000    -0.064000000    -0.302000000
O    -3.111000000     1.044000000    -1.823000000
O     2.717000000     2.671000000     5.609000000
H     2.333000000     3.515000000     5.371000000
H     3.288000000     2.869000000     6.352000000
O     2.307000000    -0.888000000     7.165000000
H     1.493000000    -0.962000000     6.666000000
H     2.888000000    -1.539000000     6.773000000
O    -4.577000000    -1.674000000     2.451000000
H    -4.816000000    -2.030000000     1.595000000
H    -4.557000000    -0.726000000     2.319000000
O     0.500000000     1.626000000     3.374000000
H     1.164000000     1.424000000     2.714000000
H     0.036000000     2.385000000     3.022000000
O     5.923000000     2.048000000    -2.613000000
H     5.629000000     2.913000000    -2.327000000
H     5.951000000     1.527000000    -1.810000000
O     7.341000000    -0.401000000     0.439000000
H     8.161000000    -0.651000000     0.866000000
H     7.406000000    -0.777000000    -0.440000000
O    -7.857000000    -2.232000000    -0.942000000
H    -6.975000000    -2.136000000    -0.583000000
H    -8.167000000    -1.334000000    -1.060000000
O    -5.891000000     2.654000000     3.776000000
H    -6.261000000     2.133000000     4.488000000
H    -5.308000000     2.050000000     3.315000000
O    -5.744000000     5.967000000    -1.311000000
H    -5.123000000     5.240000000    -1.283000000
H    -5.478000000     6.537000000    -0.588000000
O    -7.331000000    -2.396000000     2.807000000
H    -7.669000000    -1.628000000     3.268000000
H    -6.400000000    -2.416000000     3.026000000
O     5.344000000     4.194000000    -0.764000000
H     6.210000000     4.338000000    -1.145000000
H     5.457000000     3.432000000    -0.196000000
O    -6.962000000     3.446000000    -2.615000000
H    -6.578000000     2.628000000    -2.300000000
H    -6.506000000     4.129000000    -2.123000000
O     4.332000000     4.286000000     3.075000000
H     3.610000000     4.140000000     2.464000000
H     4.490000000     5.229000000     3.037000000
O    -3.633000000    -2.633000000    -3.246000000
H    -3.625000000    -2.989000000    -2.357000000
H    -3.169000000    -3.287000000    -3.769000000
O     2.552000000    -4.101000000    -0.310000000
H     2.446000000    -3.588000000     0.491000000
H     3.407000000    -4.521000000    -0.215000000
O    -0.413000000    -3.151000000    -0.958000000
H     0.084000000    -2.530000000    -0.426000000
H     0.183000000    -3.889000000    -1.086000000
O    -0.873000000     3.807000000     2.383000000
H    -0.981000000     4.754000000     2.472000000
H    -1.762000000     3.474000000     2.263000000
O    -7.081000000     1.143000000     1.043000000
H    -6.169000000     1.140000000     1.334000000
H    -7.051000000     0.784000000     0.156000000
O    -4.363000000     1.085000000     2.014000000
H    -4.080000000     0.837000000     1.134000000
H    -4.231000000     2.032000000     2.050000000
O     6.035000000     1.866000000     0.806000000
H     5.896000000     1.996000000     1.744000000
H     6.546000000     1.058000000     0.749000000
O     5.363000000    -3.454000000     0.480000000
H     5.393000000    -3.496000000    -0.476000000
H     5.092000000    -2.556000000     0.671000000
O    -2.567000000     5.214000000    -0.192000000
H    -1.614000000     5.157000000    -0.263000000
H    -2.749000000     6.153000000    -0.150000000
O    -6.481000000     0.556000000    -1.633000000
H    -5.555000000     0.316000000    -1.607000000
H    -6.866000000    -0.045000000    -2.271000000
O     2.734000000     3.266000000    -4.100000000
H     1.962000000     2.962000000    -3.622000000
H     3.124000000     2.468000000    -4.456000000
O     5.188000000     1.900000000     3.480000000
H     5.022000000     2.830000000     3.325000000
H     4.480000000     1.624000000     4.061000000
O     2.967000000     0.139000000     4.283000000
H     2.200000000    -0.377000000     4.529000000
H     2.775000000     1.020000000     4.605000000
O    -4.573000000     3.489000000    -1.154000000
H    -4.228000000     2.647000000    -1.453000000
H    -3.878000000     3.851000000    -0.606000000
O    -5.224000000    -2.385000000    -0.048000000
H    -4.614000000    -3.055000000    -0.356000000
H    -4.724000000    -1.570000000    -0.089000000
O     6.221000000    -3.153000000     3.383000000
H     5.687000000    -2.394000000     3.147000000
H     6.909000000    -3.177000000     2.719000000
O     2.396000000    -2.346000000    -5.517000000
H     2.133000000    -2.608000000    -6.399000000
H     1.588000000    -2.035000000    -5.108000000
O    -1.925000000     0.181000000     4.579000000
H    -2.786000000     0.158000000     4.997000000
H    -2.057000000     0.706000000     3.790000000
O     0.732000000     3.348000000    -2.131000000
H     0.356000000     4.224000000    -2.042000000
H    -0.005000000     2.797000000    -2.395000000
O    -0.430000000    -3.672000000     3.464000000
H    -0.272000000    -4.604000000     3.314000000
H    -1.319000000    -3.634000000     3.817000000
O    -1.486000000    -4.006000000    -5.088000000
H    -1.042000000    -3.232000000    -4.742000000
H    -1.031000000    -4.744000000    -4.681000000
O     3.736000000    -5.346000000     2.023000000
H     4.672000000    -5.226000000     1.862000000
H     3.462000000    -4.537000000     2.456000000
O     3.782000000     0.952000000    -4.770000000
H     4.089000000     0.069000000    -4.973000000
H     4.540000000     1.384000000    -4.376000000
O    -2.207000000     3.269000000    -3.090000000
H    -2.866000000     3.899000000    -2.799000000
H    -2.590000000     2.414000000    -2.894000000
O     4.835000000    -1.041000000     2.607000000
H     5.298000000    -0.282000000     2.252000000
H     4.093000000    -0.667000000     3.082000000
O    -4.263000000     0.001000000    -3.869000000
H    -4.040000000     0.365000000    -3.013000000
H    -3.958000000    -0.905000000    -3.831000000
O    -1.528000000     1.026000000    -4.858000000
H    -1.500000000     1.969000000    -4.695000000
H    -2.388000000     0.752000000    -4.540000000
O    -2.972000000    -3.578000000    -0.535000000
H    -2.753000000    -4.201000000     0.158000000
H    -2.149000000    -3.443000000    -1.004000000
O     1.937000000     4.151000000     1.688000000
H     1.071000000     3.744000000     1.665000000
H     2.019000000     4.589000000     0.841000000
O     2.103000000    -3.040000000     2.331000000
H     1.174000000    -3.004000000     2.556000000
H     2.524000000    -2.450000000     2.956000000
O     0.114000000    -1.321000000    -4.246000000
H    -0.373000000    -0.539000000    -4.505000000
H     0.369000000    -1.155000000    -3.339000000
O     0.596000000    -1.228000000     4.641000000
H     0.027000000    -0.475000000     4.483000000
H     0.097000000    -1.978000000     4.317000000
O    -6.164000000     0.121000000    -5.944000000
H    -5.883000000     0.752000000    -6.606000000
H    -5.460000000     0.124000000    -5.296000000
O     2.837000000     5.366000000    -0.949000000
H     3.629000000     4.858000000    -0.772000000
H     2.508000000     5.016000000    -1.777000000
O    -3.306000000    -3.156000000     4.545000000
H    -3.576000000    -2.632000000     5.300000000
H    -3.555000000    -2.628000000     3.786000000
