158
-3035.52686
C     0.640000000     0.540000000    -1.137000000
H     1.192000000     0.940000000    -1.984000000
C     1.298000000    -0.228000000    -0.174000000
H     2.365000000    -0.306000000    -0.369000000
C     0.545000000    -0.907000000     0.694000000
H     1.012000000    -1.661000000     1.392000000
C    -0.842000000    -0.751000000     0.730000000
H    -1.419000000    -1.112000000     1.578000000
C    -1.393000000     0.215000000    -0.097000000
H    -2.471000000     0.348000000    -0.069000000
C    -0.673000000     0.903000000    -1.075000000
C    -1.294000000     1.957000000    -1.979000000
O    -0.605000000     2.758000000    -2.560000000
O    -2.518000000     2.016000000    -2.117000000
O     0.842000000     1.690000000    -7.572000000
H    -0.036000000     1.573000000    -7.935000000
H     0.706000000     2.207000000    -6.778000000
O     5.630000000     3.843000000    -1.740000000
H     4.714000000     3.568000000    -1.781000000
H     5.888000000     3.682000000    -0.833000000
O     5.300000000    -0.291000000    -0.431000000
H     4.929000000    -0.427000000    -1.303000000
H     4.711000000     0.336000000    -0.014000000
O     1.943000000     0.878000000     6.031000000
H     1.644000000     0.992000000     5.129000000
H     1.800000000     1.731000000     6.440000000
O    -2.428000000    -3.359000000    -1.990000000
H    -2.268000000    -3.850000000    -1.184000000
H    -3.326000000    -3.040000000    -1.902000000
O    -2.708000000     3.518000000    -5.987000000
H    -2.063000000     2.882000000    -5.677000000
H    -3.546000000     3.187000000    -5.663000000
O    -2.034000000     7.931000000    -2.830000000
H    -2.892000000     8.004000000    -2.412000000
H    -1.941000000     6.998000000    -3.023000000
O     0.604000000    -3.224000000    -1.458000000
H     0.542000000    -2.269000000    -1.455000000
H     0.220000000    -3.487000000    -2.294000000
O    -1.355000000    -6.460000000     2.440000000
H    -2.083000000    -6.168000000     2.988000000
H    -1.158000000    -5.708000000     1.882000000
O     2.576000000     4.544000000     3.046000000
H     2.509000000     4.993000000     2.203000000
H     2.250000000     3.661000000     2.874000000
O    -1.058000000    -3.298000000     3.560000000
H    -0.285000000    -3.699000000     3.956000000
H    -1.533000000    -2.913000000     4.297000000
O     1.822000000     6.506000000    -0.349000000
H     1.736000000     5.836000000    -1.027000000
H     0.922000000     6.701000000    -0.090000000
O     1.284000000     2.285000000     2.175000000
H     1.735000000     1.456000000     2.339000000
H     0.470000000     2.033000000     1.738000000
O     5.049000000     2.825000000     3.497000000
H     4.855000000     3.762000000     3.466000000
H     4.315000000     2.444000000     3.980000000
O     2.001000000    -2.312000000     3.726000000
H     1.856000000    -2.801000000     4.536000000
H     2.069000000    -2.985000000     3.048000000
O    -0.720000000    -0.572000000     7.289000000
H    -0.351000000     0.234000000     6.928000000
H    -0.796000000    -0.402000000     8.228000000
O    -3.478000000     6.569000000     0.138000000
H    -2.535000000     6.724000000     0.080000000
H    -3.606000000     5.717000000    -0.280000000
O    -1.829000000     5.226000000    -3.464000000
H    -1.431000000     4.508000000    -2.972000000
H    -2.294000000     4.796000000    -4.181000000
O     0.128000000    -0.760000000     4.616000000
H     0.643000000    -0.974000000     5.394000000
H     0.623000000    -1.139000000     3.889000000
O    -4.119000000     0.536000000     1.895000000
H    -4.498000000     1.379000000     2.146000000
H    -3.327000000     0.462000000     2.426000000
O    -1.204000000    -4.306000000     0.659000000
H    -1.057000000    -3.756000000     1.429000000
H    -0.538000000    -4.024000000     0.032000000
O    -5.002000000    -2.598000000    -2.771000000
H    -4.815000000    -2.581000000    -3.710000000
H    -4.762000000    -1.724000000    -2.464000000
O     3.803000000     2.156000000     0.595000000
H     3.370000000     1.668000000     1.295000000
H     4.728000000     2.160000000     0.842000000
O    -6.034000000     5.564000000    -3.536000000
H    -6.465000000     4.822000000    -3.959000000
H    -5.104000000     5.440000000    -3.724000000
O    -6.941000000    -0.351000000     2.312000000
H    -7.144000000    -0.999000000     2.987000000
H    -5.995000000    -0.223000000     2.379000000
O    -4.126000000     3.416000000    -3.525000000
H    -4.976000000     3.130000000    -3.189000000
H    -3.487000000     2.975000000    -2.967000000
O    -3.964000000    -3.191000000     2.759000000
H    -3.017000000    -3.055000000     2.721000000
H    -4.313000000    -2.648000000     2.052000000
O     3.820000000    -0.908000000     6.957000000
H     3.212000000    -0.431000000     6.393000000
H     3.489000000    -0.764000000     7.844000000
O     3.088000000     2.542000000    -2.193000000
H     3.081000000     2.303000000    -1.267000000
H     2.320000000     3.103000000    -2.302000000
O    -3.852000000     4.000000000    -0.740000000
H    -4.678000000     4.011000000    -1.224000000
H    -3.421000000     3.192000000    -1.020000000
O     1.299000000     4.694000000    -2.208000000
H     1.120000000     5.533000000    -2.633000000
H     0.592000000     4.120000000    -2.502000000
O     0.868000000    -4.576000000     5.298000000
H     1.576000000    -5.219000000     5.346000000
H     0.118000000    -5.015000000     5.699000000
O     2.424000000    -5.061000000    -1.026000000
H     1.899000000    -5.819000000    -0.767000000
H     1.780000000    -4.392000000    -1.259000000
O    -2.603000000     0.099000000     4.268000000
H    -1.693000000    -0.130000000     4.459000000
H    -2.829000000     0.752000000     4.931000000
O    -4.947000000    -1.629000000     0.595000000
H    -5.240000000    -1.319000000    -0.262000000
H    -4.416000000    -0.912000000     0.941000000
O     4.273000000    -0.848000000    -3.227000000
H     4.756000000    -1.565000000    -3.639000000
H     4.779000000    -0.065000000    -3.441000000
O    -2.023000000    -1.769000000    -4.055000000
H    -1.540000000    -2.494000000    -4.452000000
H    -2.368000000    -2.131000000    -3.238000000
O     3.247000000     0.330000000     3.002000000
H     2.843000000    -0.516000000     3.194000000
H     4.187000000     0.151000000     2.998000000
O    -2.297000000     0.741000000    -4.742000000
H    -2.317000000     1.179000000    -3.891000000
H    -2.378000000    -0.190000000    -4.535000000
O    -7.071000000     2.033000000     0.707000000
H    -7.173000000     1.119000000     0.971000000
H    -6.274000000     2.323000000     1.152000000
O    -4.475000000     0.003000000    -2.287000000
H    -3.787000000     0.642000000    -2.102000000
H    -5.058000000     0.449000000    -2.901000000
O    -0.345000000     5.620000000    -6.095000000
H    -0.769000000     4.762000000    -6.119000000
H     0.588000000     5.425000000    -6.015000000
O     1.696000000    -1.414000000    -4.317000000
H     1.594000000    -2.283000000    -4.706000000
H     2.488000000    -1.481000000    -3.784000000
O     3.681000000    -4.391000000     1.739000000
H     4.630000000    -4.501000000     1.679000000
H     3.349000000    -4.716000000     0.903000000
O    -6.468000000     2.703000000    -2.057000000
H    -6.556000000     2.286000000    -1.201000000
H    -7.297000000     2.521000000    -2.499000000
O     0.231000000     2.803000000    -5.078000000
H     0.967000000     2.198000000    -4.982000000
H    -0.153000000     2.854000000    -4.203000000
O     2.581000000     1.302000000    -4.627000000
H     2.405000000     0.362000000    -4.668000000
H     2.814000000     1.463000000    -3.713000000
O    -1.929000000    -2.809000000     6.200000000
H    -1.349000000    -2.105000000     6.491000000
H    -1.925000000    -3.437000000     6.923000000
