158
-3041.68124
C     0.588000000     1.372000000    -0.040000000
H     1.079000000     2.329000000     0.115000000
C     1.278000000     0.175000000     0.357000000
H     2.280000000     0.280000000     0.765000000
C     0.670000000    -1.045000000     0.263000000
H     1.119000000    -1.970000000     0.671000000
C    -0.661000000    -1.146000000    -0.186000000
H    -1.261000000    -2.052000000    -0.177000000
C    -1.387000000     0.049000000    -0.517000000
H    -2.402000000    -0.124000000    -0.866000000
C    -0.736000000     1.305000000    -0.507000000
C    -1.574000000     2.553000000    -0.674000000
O    -1.135000000     3.700000000    -0.614000000
O    -2.763000000     2.341000000    -1.068000000
O    -1.463000000     8.741000000    -0.359000000
H    -2.008000000     8.822000000     0.424000000
H    -1.812000000     7.976000000    -0.815000000
O     4.632000000     0.513000000     4.035000000
H     4.059000000    -0.250000000     4.112000000
H     4.351000000     1.096000000     4.740000000
O    -4.548000000    -5.857000000    -1.519000000
H    -5.404000000    -5.618000000    -1.874000000
H    -4.105000000    -5.021000000    -1.380000000
O    -4.005000000    -2.140000000    -3.576000000
H    -4.810000000    -2.397000000    -4.026000000
H    -4.158000000    -1.234000000    -3.310000000
O     1.679000000    -4.670000000    -3.350000000
H     0.986000000    -4.058000000    -3.105000000
H     2.469000000    -4.314000000    -2.944000000
O    -1.722000000     6.380000000    -1.709000000
H    -1.625000000     5.449000000    -1.511000000
H    -1.599000000     6.438000000    -2.657000000
O    -1.811000000     4.228000000     4.615000000
H    -1.888000000     3.732000000     3.800000000
H    -2.428000000     4.953000000     4.514000000
O    -1.685000000    -3.327000000    -4.308000000
H    -2.477000000    -2.863000000    -4.037000000
H    -0.971000000    -2.843000000    -3.893000000
O    -1.862000000    -3.317000000     2.272000000
H    -1.609000000    -2.943000000     3.116000000
H    -2.793000000    -3.110000000     2.188000000
O     0.683000000     2.720000000     3.014000000
H     1.541000000     3.030000000     2.727000000
H     0.071000000     3.388000000     2.705000000
O    -0.154000000     6.639000000     3.967000000
H    -0.436000000     6.088000000     3.237000000
H    -0.293000000     7.534000000     3.659000000
O     2.224000000    -3.110000000     5.379000000
H     2.460000000    -2.503000000     4.678000000
H     1.459000000    -2.711000000     5.794000000
O    -2.972000000     6.398000000     3.101000000
H    -3.189000000     6.784000000     2.253000000
H    -3.592000000     6.796000000     3.712000000
O    -1.070000000     4.513000000     1.951000000
H    -1.817000000     5.107000000     2.037000000
H    -0.966000000     4.394000000     1.007000000
O    -0.341000000     0.220000000     3.178000000
H    -0.128000000    -0.063000000     2.288000000
H    -0.077000000     1.140000000     3.206000000
O     3.586000000     2.760000000     2.579000000
H     4.013000000     3.058000000     1.775000000
H     4.017000000     1.930000000     2.785000000
O     2.278000000    -1.248000000     3.337000000
H     1.377000000    -1.502000000     3.139000000
H     2.752000000    -1.387000000     2.517000000
O     3.045000000    -0.692000000    -3.286000000
H     3.090000000    -1.580000000    -3.641000000
H     3.776000000    -0.642000000    -2.671000000
O    -3.969000000     7.107000000     0.520000000
H    -4.373000000     6.308000000     0.183000000
H    -4.306000000     7.802000000    -0.045000000
O    -2.589000000     3.291000000    -3.781000000
H    -1.704000000     2.977000000    -3.968000000
H    -2.710000000     3.121000000    -2.847000000
O     1.802000000     0.894000000     5.257000000
H     0.937000000     1.286000000     5.378000000
H     1.767000000     0.501000000     4.385000000
O     3.891000000     2.469000000    -0.310000000
H     4.379000000     2.480000000    -1.134000000
H     4.348000000     1.825000000     0.231000000
O     0.209000000    -5.420000000     1.671000000
H    -0.205000000    -5.960000000     2.344000000
H    -0.148000000    -4.544000000     1.813000000
O    -6.826000000    -1.479000000    -0.124000000
H    -7.379000000    -0.726000000     0.086000000
H    -6.060000000    -1.378000000     0.442000000
O    -5.354000000     0.882000000     2.131000000
H    -5.931000000     0.639000000     2.855000000
H    -4.531000000     1.127000000     2.553000000
O    -4.835000000     2.112000000    -5.140000000
H    -5.604000000     2.190000000    -4.576000000
H    -4.163000000     2.637000000    -4.705000000
O    -4.641000000    -2.258000000     2.003000000
H    -4.085000000    -1.854000000     2.669000000
H    -5.075000000    -2.980000000     2.459000000
O     3.459000000     5.066000000     0.045000000
H     3.518000000     4.112000000     0.009000000
H     2.630000000     5.271000000    -0.388000000
O    -4.628000000     4.663000000    -0.678000000
H    -5.117000000     4.571000000    -1.496000000
H    -3.862000000     4.101000000    -0.792000000
O     4.162000000    -5.245000000    -1.849000000
H     3.449000000    -5.510000000    -1.268000000
H     4.949000000    -5.312000000    -1.309000000
O     5.135000000     0.730000000     1.214000000
H     6.067000000     0.714000000     1.431000000
H     4.733000000     0.121000000     1.834000000
O     0.947000000     5.170000000    -1.384000000
H     0.729000000     6.100000000    -1.329000000
H     0.165000000     4.721000000    -1.062000000
O     6.252000000    -5.056000000    -0.124000000
H     7.130000000    -5.163000000    -0.491000000
H     6.296000000    -4.234000000     0.364000000
O     2.141000000    -5.965000000    -0.242000000
H     1.453000000    -5.775000000     0.395000000
H     1.712000000    -6.506000000    -0.905000000
O     3.686000000    -4.565000000     2.524000000
H     2.738000000    -4.440000000     2.477000000
H     3.812000000    -5.500000000     2.362000000
O    -7.757000000     1.622000000    -1.595000000
H    -6.887000000     1.629000000    -1.194000000
H    -8.311000000     1.176000000    -0.955000000
O    -5.360000000     1.292000000    -0.472000000
H    -4.448000000     1.564000000    -0.580000000
H    -5.395000000     0.915000000     0.407000000
O     5.396000000    -0.957000000    -1.815000000
H     5.568000000    -0.898000000    -0.875000000
H     6.063000000    -1.560000000    -2.143000000
O    -3.489000000    -3.475000000    -1.224000000
H    -3.613000000    -2.780000000    -1.870000000
H    -3.365000000    -3.012000000    -0.395000000
O    -2.815000000     0.977000000     3.711000000
H    -2.022000000     0.444000000     3.656000000
H    -2.974000000     1.074000000     4.650000000
O    -1.905000000     0.133000000    -4.674000000
H    -2.547000000     0.843000000    -4.696000000
H    -2.222000000    -0.496000000    -5.321000000
O    -4.405000000     0.283000000    -2.603000000
H    -4.942000000     0.223000000    -1.813000000
H    -3.950000000     1.121000000    -2.520000000
O     0.332000000    -2.114000000    -3.012000000
H     1.186000000    -1.684000000    -3.064000000
H    -0.152000000    -1.607000000    -2.361000000
O     4.426000000    -1.956000000     1.836000000
H     4.369000000    -2.744000000     2.377000000
H     5.349000000    -1.901000000     1.590000000
O     2.535000000     4.103000000    -4.364000000
H     2.408000000     5.046000000    -4.262000000
H     2.029000000     3.715000000    -3.650000000
O    -0.791000000    -2.172000000     4.503000000
H    -0.724000000    -1.259000000     4.222000000
H    -0.905000000    -2.122000000     5.452000000
O    -0.249000000     2.111000000    -4.199000000
H    -0.637000000     1.245000000    -4.325000000
H     0.506000000     1.955000000    -3.632000000
O     1.883000000     2.287000000    -2.554000000
H     1.856000000     2.742000000    -1.713000000
H     2.202000000     1.409000000    -2.342000000
