158
-3016.57164
C     0.982000000     1.122000000    -0.178000000
H     1.755000000     1.865000000    -0.354000000
C     1.220000000    -0.077000000     0.503000000
H     2.205000000    -0.283000000     0.914000000
C     0.258000000    -1.005000000     0.565000000
H     0.621000000    -1.939000000     1.022000000
C    -0.955000000    -0.907000000    -0.093000000
H    -1.628000000    -1.760000000    -0.065000000
C    -1.229000000     0.326000000    -0.711000000
H    -2.180000000     0.534000000    -1.195000000
C    -0.229000000     1.310000000    -0.855000000
C    -0.586000000     2.667000000    -1.430000000
O     0.097000000     3.626000000    -1.161000000
O    -1.643000000     2.834000000    -2.004000000
O     4.735000000    -0.324000000     4.270000000
H     5.442000000    -0.433000000     4.907000000
H     4.965000000    -0.915000000     3.554000000
O    -2.208000000    -6.077000000    -1.422000000
H    -2.555000000    -5.345000000    -0.911000000
H    -1.669000000    -5.663000000    -2.096000000
O    -5.373000000    -1.802000000    -2.414000000
H    -5.824000000    -1.017000000    -2.725000000
H    -5.736000000    -1.957000000    -1.542000000
O    -3.289000000     7.371000000    -1.589000000
H    -3.844000000     8.006000000    -2.042000000
H    -3.228000000     6.631000000    -2.194000000
O    -0.767000000    -1.834000000    -3.507000000
H    -1.297000000    -2.138000000    -2.770000000
H     0.129000000    -1.826000000    -3.170000000
O    -1.427000000    -4.597000000     1.108000000
H    -0.928000000    -4.717000000     1.916000000
H    -2.054000000    -3.904000000     1.315000000
O    -0.107000000     5.601000000     2.004000000
H     0.496000000     6.335000000     2.124000000
H    -0.298000000     5.599000000     1.066000000
O     1.392000000    -1.327000000     7.045000000
H     0.710000000    -0.656000000     7.042000000
H     0.913000000    -2.156000000     7.074000000
O    -3.911000000    -0.736000000     3.703000000
H    -4.039000000     0.138000000     4.072000000
H    -3.245000000    -1.137000000     4.263000000
O    -0.930000000     5.825000000    -0.472000000
H    -0.718000000     4.929000000    -0.732000000
H    -1.577000000     6.114000000    -1.115000000
O     1.136000000     3.147000000     2.595000000
H     1.843000000     3.093000000     1.951000000
H     0.842000000     4.057000000     2.549000000
O     0.873000000    -2.533000000     4.044000000
H     1.495000000    -2.350000000     4.747000000
H     1.389000000    -2.987000000     3.379000000
O     4.073000000     2.380000000    -1.828000000
H     4.647000000     2.792000000    -1.183000000
H     4.055000000     2.995000000    -2.561000000
O    -4.034000000     6.132000000     0.673000000
H    -3.739000000     5.269000000     0.383000000
H    -4.292000000     6.580000000    -0.133000000
O    -3.157000000     5.150000000    -3.242000000
H    -2.555000000     5.403000000    -3.941000000
H    -2.930000000     4.241000000    -3.047000000
O     2.623000000    -4.869000000    -2.722000000
H     3.189000000    -5.499000000    -2.276000000
H     1.813000000    -4.872000000    -2.211000000
O    -5.394000000    -5.181000000    -0.686000000
H    -4.644000000    -4.734000000    -1.079000000
H    -6.105000000    -5.055000000    -1.315000000
O    -6.206000000     0.251000000    -4.084000000
H    -5.859000000    -0.513000000    -4.543000000
H    -5.511000000     0.907000000    -4.150000000
O     3.694000000     3.330000000     1.849000000
H     4.391000000     2.789000000     2.219000000
H     3.602000000     4.057000000     2.464000000
O     0.013000000    -7.040000000     2.490000000
H     0.144000000    -6.924000000     3.431000000
H    -0.901000000    -7.314000000     2.409000000
O    -4.053000000     1.449000000     1.149000000
H    -4.534000000     1.240000000     1.949000000
H    -3.166000000     1.650000000     1.448000000
O    -5.603000000     4.117000000    -4.020000000
H    -5.367000000     3.548000000    -4.753000000
H    -4.781000000     4.537000000    -3.768000000
O    -3.430000000    -2.842000000     1.551000000
H    -3.541000000    -2.071000000     2.107000000
H    -4.269000000    -3.299000000     1.605000000
O     3.665000000     5.389000000    -0.368000000
H     3.622000000     4.535000000     0.061000000
H     2.978000000     5.358000000    -1.034000000
O    -3.773000000     3.496000000    -0.652000000
H    -3.003000000     3.476000000    -1.221000000
H    -3.754000000     2.656000000    -0.194000000
O     5.709000000     2.172000000     3.335000000
H     6.606000000     2.285000000     3.649000000
H     5.446000000     1.313000000     3.666000000
O     1.801000000     5.644000000    -2.083000000
H     1.228000000     6.326000000    -2.434000000
H     1.202000000     4.973000000    -1.756000000
O     1.793000000    -7.212000000     0.246000000
H     1.398000000    -7.234000000     1.118000000
H     1.361000000    -7.920000000    -0.231000000
O     0.049000000    -3.844000000     6.941000000
H    -0.667000000    -4.045000000     7.543000000
H     0.039000000    -4.563000000     6.308000000
O     1.731000000     1.933000000     4.965000000
H     0.869000000     1.710000000     5.316000000
H     1.649000000     1.792000000     4.022000000
O     6.259000000     3.114000000    -0.535000000
H     6.898000000     3.190000000    -1.244000000
H     6.644000000     2.479000000     0.068000000
O     2.874000000    -4.909000000     5.540000000
H     2.059000000    -4.523000000     5.861000000
H     3.150000000    -4.329000000     4.830000000
O     0.782000000    -5.068000000    -0.845000000
H     0.157000000    -4.685000000    -0.230000000
H     1.164000000    -5.806000000    -0.371000000
O    -5.899000000     0.765000000    -0.884000000
H    -5.130000000     0.915000000    -1.435000000
H    -5.561000000     0.791000000     0.011000000
O    -2.680000000    -7.383000000     1.698000000
H    -2.567000000    -6.478000000     1.407000000
H    -3.559000000    -7.405000000     2.075000000
O     6.495000000    -0.757000000     1.310000000
H     6.168000000    -0.959000000     0.433000000
H     6.916000000     0.097000000     1.218000000
O     5.558000000    -0.625000000    -1.078000000
H     6.124000000    -0.559000000    -1.847000000
H     5.060000000     0.193000000    -1.076000000
O    -3.410000000    -3.382000000    -1.336000000
H    -3.787000000    -2.878000000    -2.057000000
H    -3.564000000    -2.842000000    -0.561000000
O    -0.941000000     1.651000000     2.409000000
H    -0.564000000     1.027000000     1.788000000
H    -0.206000000     2.208000000     2.666000000
O     0.159000000     7.802000000    -3.148000000
H    -0.567000000     8.414000000    -3.029000000
H     0.752000000     8.248000000    -3.753000000
O    -1.633000000     0.317000000    -4.683000000
H    -0.886000000     0.914000000    -4.670000000
H    -1.290000000    -0.503000000    -4.328000000
O    -3.858000000     1.523000000    -3.234000000
H    -3.112000000     1.804000000    -2.704000000
H    -3.483000000     1.336000000    -4.095000000
O     1.625000000    -2.168000000    -2.710000000
H     2.008000000    -2.958000000    -3.092000000
H     2.012000000    -2.114000000    -1.836000000
O     3.002000000    -3.856000000     2.847000000
H     3.148000000    -4.509000000     2.163000000
H     3.846000000    -3.416000000     2.943000000
O    -1.528000000    -1.619000000     5.216000000
H    -0.804000000    -1.983000000     4.706000000
H    -1.110000000    -1.009000000     5.824000000
O    -6.191000000     4.284000000    -1.236000000
H    -6.086000000     3.889000000    -2.101000000
H    -5.407000000     4.018000000    -0.755000000
O     0.536000000     2.099000000    -4.426000000
H     1.389000000     1.733000000    -4.192000000
H     0.247000000     2.557000000    -3.636000000
O     2.712000000     0.662000000    -3.446000000
H     2.711000000    -0.135000000    -2.917000000
H     3.087000000     1.330000000    -2.872000000
