158
-3029.41819
C     0.453000000    -1.276000000    -0.504000000
H     0.535000000    -2.308000000    -0.837000000
C    -0.497000000    -1.009000000     0.481000000
H    -0.942000000    -1.820000000     1.051000000
C    -0.807000000     0.297000000     0.898000000
H    -1.490000000     0.439000000     1.647000000
C    -0.214000000     1.362000000     0.177000000
H    -0.612000000     2.357000000     0.364000000
C     0.804000000     1.098000000    -0.718000000
H     1.195000000     1.954000000    -1.261000000
C     1.197000000    -0.242000000    -1.043000000
C     2.257000000    -0.648000000    -2.018000000
O     2.901000000     0.192000000    -2.514000000
O     2.474000000    -1.791000000    -2.295000000
O    -2.685000000     4.410000000     1.227000000
H    -3.196000000     4.622000000     2.008000000
H    -3.024000000     3.561000000     0.942000000
O     0.436000000    -4.269000000     3.424000000
H     0.211000000    -5.077000000     2.962000000
H     1.115000000    -3.865000000     2.883000000
O     3.371000000     2.107000000     1.865000000
H     2.466000000     2.346000000     1.664000000
H     3.372000000     1.150000000     1.864000000
O     0.376000000    -5.572000000    -0.477000000
H     0.182000000    -6.111000000    -1.244000000
H     1.097000000    -5.008000000    -0.757000000
O     5.894000000     0.112000000     1.473000000
H     6.573000000    -0.392000000     1.025000000
H     5.744000000     0.868000000     0.905000000
O    -4.372000000     2.908000000     5.057000000
H    -5.059000000     2.565000000     5.627000000
H    -3.649000000     2.288000000     5.152000000
O     2.198000000     2.148000000    -4.338000000
H     2.330000000     1.462000000    -3.683000000
H     2.651000000     1.825000000    -5.117000000
O     3.569000000     4.828000000    -4.468000000
H     3.667000000     5.190000000    -3.587000000
H     2.902000000     4.148000000    -4.374000000
O    -1.345000000    -2.731000000    -2.261000000
H    -2.177000000    -2.671000000    -1.791000000
H    -1.497000000    -2.255000000    -3.078000000
O    -2.837000000     0.489000000     4.799000000
H    -2.099000000    -0.116000000     4.729000000
H    -3.588000000    -0.011000000     4.480000000
O    -5.036000000    -0.737000000     0.972000000
H    -5.234000000    -0.977000000     1.878000000
H    -4.401000000    -1.392000000     0.684000000
O    -2.274000000    -5.100000000     4.536000000
H    -1.450000000    -4.788000000     4.162000000
H    -2.514000000    -5.851000000     3.994000000
O    -1.875000000    -5.093000000     1.075000000
H    -1.031000000    -5.298000000     0.672000000
H    -2.299000000    -5.944000000     1.186000000
O    -2.427000000    -0.080000000    -1.827000000
H    -1.790000000     0.220000000    -2.476000000
H    -1.954000000    -0.731000000    -1.309000000
O    -2.185000000     7.188000000     0.102000000
H    -2.703000000     7.236000000    -0.701000000
H    -2.457000000     6.368000000     0.514000000
O     0.556000000     3.011000000     3.678000000
H     1.139000000     2.947000000     4.434000000
H     0.901000000     3.746000000     3.171000000
O     2.367000000    -1.318000000    -5.078000000
H     1.534000000    -1.737000000    -5.293000000
H     2.468000000    -1.453000000    -4.136000000
O     2.186000000    -0.792000000     2.651000000
H     1.307000000    -0.624000000     2.311000000
H     2.307000000    -1.736000000     2.547000000
O     3.823000000     0.891000000    -6.180000000
H     4.420000000     0.614000000    -6.875000000
H     3.431000000     0.077000000    -5.862000000
O    -4.873000000    -1.644000000     4.570000000
H    -5.344000000    -1.646000000     5.403000000
H    -5.483000000    -2.041000000     3.949000000
O    -0.925000000     4.340000000    -1.824000000
H    -0.334000000     5.057000000    -2.055000000
H    -1.038000000     4.418000000    -0.877000000
O    -4.444000000     1.187000000    -2.685000000
H    -4.099000000     2.071000000    -2.811000000
H    -3.713000000     0.695000000    -2.312000000
O    -3.007000000    -2.699000000     6.269000000
H    -3.392000000    -2.091000000     5.638000000
H    -2.708000000    -3.437000000     5.738000000
O     3.776000000     6.261000000    -2.031000000
H     4.662000000     6.616000000    -1.960000000
H     3.755000000     5.541000000    -1.401000000
O     2.499000000    -3.611000000     1.706000000
H     2.221000000    -3.841000000     0.819000000
H     3.437000000    -3.798000000     1.719000000
O     5.209000000    -4.580000000     0.906000000
H     6.022000000    -5.081000000     0.844000000
H     4.860000000    -4.578000000     0.014000000
O    -5.186000000     3.822000000    -0.564000000
H    -4.908000000     3.228000000     0.134000000
H    -4.417000000     3.903000000    -1.129000000
O    -3.443000000    -2.970000000    -0.373000000
H    -4.037000000    -3.676000000    -0.628000000
H    -2.735000000    -3.410000000     0.098000000
O     1.312000000     4.456000000     0.344000000
H     1.699000000     5.183000000    -0.142000000
H     0.818000000     4.875000000     1.049000000
O    -1.550000000     5.751000000     3.967000000
H    -0.867000000     5.973000000     4.599000000
H    -1.115000000     5.180000000     3.334000000
O     1.583000000    -5.986000000    -5.209000000
H     1.368000000    -5.100000000    -4.917000000
H     2.513000000    -5.945000000    -5.435000000
O    -3.362000000     3.762000000    -3.076000000
H    -3.774000000     4.618000000    -2.960000000
H    -2.503000000     3.853000000    -2.664000000
O     2.544000000    -4.192000000    -1.245000000
H     3.097000000    -4.499000000    -1.963000000
H     2.413000000    -3.261000000    -1.425000000
O     4.437000000    -4.866000000    -3.181000000
H     5.101000000    -5.441000000    -2.802000000
H     4.687000000    -4.785000000    -4.101000000
O     6.579000000    -2.698000000    -0.555000000
H     6.265000000    -2.184000000    -1.299000000
H     5.792000000    -2.883000000    -0.042000000
O     5.131000000    -1.818000000    -2.827000000
H     4.332000000    -1.333000000    -2.620000000
H     4.837000000    -2.719000000    -2.960000000
O    -3.632000000     1.917000000     0.620000000
H    -4.275000000     1.279000000     0.928000000
H    -2.888000000     1.388000000     0.333000000
O    -0.639000000    -1.794000000     3.968000000
H    -0.081000000    -1.712000000     4.741000000
H    -0.509000000    -2.695000000     3.673000000
O     6.311000000     3.733000000    -2.436000000
H     6.389000000     2.863000000    -2.826000000
H     5.665000000     3.625000000    -1.738000000
O     3.639000000    -3.271000000    -6.199000000
H     3.366000000    -2.612000000    -5.560000000
H     4.484000000    -3.584000000    -5.875000000
O     6.762000000     0.333000000    -2.931000000
H     6.364000000    -0.530000000    -3.041000000
H     7.654000000     0.149000000    -2.635000000
O    -6.351000000     0.800000000    -0.864000000
H    -5.886000000     0.956000000    -1.686000000
H    -5.731000000     0.304000000    -0.329000000
O     4.063000000     3.701000000    -0.787000000
H     3.339000000     3.681000000    -0.161000000
H     4.504000000     2.859000000    -0.669000000
O    -1.423000000     2.712000000     5.580000000
H    -1.798000000     1.902000000     5.233000000
H    -1.107000000     3.179000000     4.807000000
O     0.937000000    -3.611000000    -3.808000000
H     0.180000000    -3.273000000    -3.329000000
H     1.688000000    -3.384000000    -3.261000000
O    -0.634000000     1.121000000    -4.798000000
H    -0.509000000     1.318000000    -5.726000000
H     0.167000000     1.435000000    -4.377000000
O    -5.083000000     4.681000000     2.632000000
H    -6.018000000     4.667000000     2.432000000
H    -4.990000000     4.098000000     3.386000000
O     5.001000000     1.026000000    -1.090000000
H     4.131000000     0.694000000    -1.314000000
H     5.570000000     0.696000000    -1.785000000
