158
-3028.92032
C     0.557000000     0.748000000    -1.114000000
H     0.999000000     1.346000000    -1.907000000
C     1.320000000     0.074000000    -0.132000000
H     2.403000000     0.093000000    -0.228000000
C     0.635000000    -0.597000000     0.870000000
H     1.233000000    -1.220000000     1.593000000
C    -0.738000000    -0.659000000     0.908000000
H    -1.241000000    -1.229000000     1.686000000
C    -1.515000000     0.008000000    -0.109000000
H    -2.589000000    -0.160000000    -0.148000000
C    -0.859000000     0.740000000    -1.091000000
C    -1.558000000     1.425000000    -2.196000000
O    -1.116000000     2.473000000    -2.642000000
O    -2.683000000     1.042000000    -2.526000000
O    -1.210000000     0.634000000    -6.545000000
H    -2.058000000     1.074000000    -6.607000000
H    -1.098000000     0.461000000    -5.610000000
O     4.523000000    -1.727000000    -1.522000000
H     4.161000000    -2.567000000    -1.803000000
H     4.076000000    -1.537000000    -0.697000000
O     1.055000000     0.738000000     3.874000000
H     0.509000000     1.505000000     3.702000000
H     0.739000000     0.077000000     3.257000000
O    -3.538000000    -5.392000000    -0.695000000
H    -2.807000000    -4.807000000    -0.495000000
H    -4.314000000    -4.914000000    -0.403000000
O     1.317000000    -4.099000000    -0.858000000
H     1.794000000    -4.665000000    -1.466000000
H     1.960000000    -3.874000000    -0.186000000
O    -1.386000000     3.702000000    -4.849000000
H    -1.284000000     3.021000000    -4.185000000
H    -2.238000000     3.523000000    -5.247000000
O    -0.802000000     2.397000000     3.620000000
H    -1.261000000     3.065000000     3.111000000
H    -1.480000000     2.011000000     4.175000000
O    -1.410000000    -3.603000000    -0.485000000
H    -1.696000000    -2.970000000    -1.143000000
H    -0.525000000    -3.847000000    -0.756000000
O    -4.166000000    -5.857000000     2.871000000
H    -4.997000000    -5.759000000     2.405000000
H    -3.701000000    -5.037000000     2.706000000
O    -4.021000000     3.126000000     1.967000000
H    -4.475000000     3.881000000     1.594000000
H    -4.709000000     2.627000000     2.408000000
O     3.309000000    -3.528000000     6.060000000
H     3.126000000    -2.626000000     5.795000000
H     4.228000000    -3.663000000     5.830000000
O    -0.686000000    -4.949000000     3.885000000
H     0.078000000    -5.083000000     4.446000000
H    -1.435000000    -5.132000000     4.453000000
O     1.045000000     3.284000000     1.428000000
H     0.560000000     2.467000000     1.543000000
H     0.913000000     3.513000000     0.508000000
O     3.310000000     2.454000000     3.315000000
H     4.068000000     2.610000000     3.878000000
H     2.810000000     1.776000000     3.771000000
O     3.491000000    -2.940000000     2.856000000
H     4.058000000    -2.908000000     3.627000000
H     3.554000000    -3.844000000     2.549000000
O     5.730000000     2.493000000    -3.401000000
H     6.018000000     2.869000000    -2.570000000
H     4.926000000     2.966000000    -3.613000000
O    -1.291000000    -1.394000000     5.217000000
H    -0.547000000    -1.699000000     4.698000000
H    -0.966000000    -0.615000000     5.667000000
O    -2.772000000     6.611000000    -0.485000000
H    -3.097000000     5.930000000    -1.074000000
H    -3.003000000     6.301000000     0.391000000
O    -7.881000000    -0.060000000    -2.660000000
H    -8.318000000    -0.502000000    -1.932000000
H    -6.981000000    -0.385000000    -2.631000000
O    -2.837000000     4.475000000    -2.245000000
H    -2.331000000     3.676000000    -2.394000000
H    -3.681000000     4.305000000    -2.663000000
O     1.199000000     3.077000000     6.082000000
H     0.593000000     2.643000000     5.480000000
H     1.284000000     3.965000000     5.737000000
O     0.733000000    -2.418000000     3.466000000
H     0.320000000    -3.279000000     3.389000000
H     1.655000000    -2.577000000     3.264000000
O    -5.955000000    -0.881000000     3.244000000
H    -6.348000000    -0.766000000     4.110000000
H    -5.107000000    -1.289000000     3.419000000
O    -2.519000000    -4.020000000     1.973000000
H    -1.812000000    -4.507000000     2.397000000
H    -2.177000000    -3.807000000     1.105000000
O     4.068000000     1.864000000     0.596000000
H     4.194000000     0.958000000     0.875000000
H     3.569000000     2.266000000     1.308000000
O    -4.752000000    -1.654000000     0.800000000
H    -3.800000000    -1.709000000     0.886000000
H    -5.045000000    -1.275000000     1.628000000
O    -4.412000000     0.939000000    -4.451000000
H    -4.898000000     1.714000000    -4.170000000
H    -3.736000000     0.825000000    -3.783000000
O     3.107000000    -0.570000000     5.280000000
H     3.266000000     0.126000000     5.918000000
H     2.355000000    -0.263000000     4.773000000
O    -5.446000000    -1.089000000    -5.970000000
H    -4.827000000    -0.396000000    -5.739000000
H    -6.181000000    -0.629000000    -6.376000000
O     3.277000000     4.190000000    -1.265000000
H     3.686000000     3.325000000    -1.246000000
H     2.589000000     4.116000000    -1.926000000
O    -5.544000000     3.620000000    -3.454000000
H    -6.426000000     3.252000000    -3.401000000
H    -5.635000000     4.376000000    -4.035000000
O     0.628000000     4.569000000    -2.627000000
H     0.085000000     5.336000000    -2.447000000
H     0.001000000     3.863000000    -2.783000000
O     1.954000000    -5.303000000     4.453000000
H     2.722000000    -5.560000000     3.943000000
H     2.310000000    -4.801000000     5.186000000
O     6.434000000    -0.100000000     3.286000000
H     7.183000000     0.113000000     2.729000000
H     6.408000000     0.606000000     3.932000000
O     6.427000000     0.224000000    -0.499000000
H     5.797000000     0.768000000    -0.027000000
H     5.946000000    -0.578000000    -0.704000000
O    -3.742000000    -2.263000000     3.789000000
H    -3.032000000    -1.948000000     4.348000000
H    -3.305000000    -2.791000000     3.121000000
O    -4.993000000     3.045000000    -0.769000000
H    -5.497000000     2.796000000    -1.543000000
H    -4.161000000     2.581000000    -0.866000000
O    -5.503000000    -1.537000000    -1.915000000
H    -4.585000000    -1.364000000    -2.123000000
H    -5.529000000    -1.569000000    -0.958000000
O     4.380000000    -0.780000000     1.503000000
H     3.814000000    -1.458000000     1.873000000
H     4.881000000    -0.452000000     2.249000000
O    -0.477000000     6.383000000    -4.780000000
H    -0.909000000     5.529000000    -4.736000000
H     0.432000000     6.180000000    -4.999000000
O    -3.516000000     2.746000000    -6.839000000
H    -3.936000000     2.945000000    -7.676000000
H    -4.243000000     2.564000000    -6.244000000
O    -0.287000000    -0.384000000    -4.360000000
H     0.142000000    -1.171000000    -4.024000000
H     0.416000000     0.261000000    -4.429000000
O    -2.600000000    -1.947000000    -2.497000000
H    -2.493000000    -1.004000000    -2.623000000
H    -2.530000000    -2.316000000    -3.377000000
O     1.180000000    -2.402000000    -3.185000000
H     1.275000000    -3.303000000    -2.878000000
H     0.902000000    -1.913000000    -2.410000000
O     3.711000000    -6.033000000     2.385000000
H     4.365000000    -6.719000000     2.523000000
H     3.116000000    -6.397000000     1.730000000
O     3.285000000     3.894000000    -4.258000000
H     3.899000000     4.196000000    -4.927000000
H     2.499000000     4.421000000    -4.400000000
O     1.710000000     1.351000000    -5.612000000
H     0.888000000     1.710000000    -5.944000000
H     2.193000000     2.114000000    -5.294000000
O     3.367000000    -1.507000000    -4.292000000
H     2.465000000    -1.789000000    -4.144000000
H     3.625000000    -1.087000000    -3.472000000
