158
-3037.34862
C    -1.277000000     0.210000000    -0.608000000
H    -2.290000000     0.227000000    -1.003000000
C    -0.959000000     0.447000000     0.686000000
H    -1.787000000     0.767000000     1.314000000
C     0.379000000     0.350000000     1.145000000
H     0.551000000     0.526000000     2.248000000
C     1.384000000    -0.129000000     0.300000000
H     2.360000000    -0.023000000     0.766000000
C     1.017000000    -0.520000000    -0.985000000
H     1.724000000    -0.920000000    -1.707000000
C    -0.341000000    -0.401000000    -1.444000000
C    -0.743000000    -0.806000000    -2.915000000
O    -1.875000000    -0.735000000    -3.277000000
O     0.116000000    -1.139000000    -3.716000000
O    -5.315000000     1.574000000    -3.626000000
H    -6.199000000     1.717000000    -3.289000000
H    -5.160000000     0.638000000    -3.503000000
O    -2.417000000     1.518000000    -4.408000000
H    -2.318000000     0.752000000    -3.843000000
H    -3.007000000     2.097000000    -3.925000000
O    -1.717000000    -1.131000000    -5.966000000
H    -0.970000000    -0.904000000    -6.519000000
H    -1.421000000    -0.946000000    -5.075000000
O     5.202000000    -1.116000000     5.141000000
H     4.330000000    -0.921000000     4.798000000
H     5.520000000    -1.833000000     4.592000000
O     4.010000000     4.049000000    -1.484000000
H     4.567000000     3.650000000    -0.816000000
H     3.882000000     4.949000000    -1.182000000
O    -6.222000000    -3.543000000    -1.839000000
H    -6.530000000    -3.533000000    -2.745000000
H    -5.442000000    -2.988000000    -1.845000000
O    -3.394000000    -1.671000000     2.896000000
H    -3.111000000    -1.957000000     2.027000000
H    -4.287000000    -2.007000000     2.978000000
O    -0.664000000    -0.732000000     8.004000000
H     0.062000000    -1.332000000     8.174000000
H    -0.735000000    -0.706000000     7.050000000
O     4.334000000    -3.808000000     1.418000000
H     4.009000000    -3.070000000     0.903000000
H     3.574000000    -4.379000000     1.526000000
O     1.711000000    -4.251000000    -0.546000000
H     0.892000000    -3.896000000    -0.891000000
H     2.349000000    -4.102000000    -1.244000000
O    -4.590000000    -1.121000000    -3.661000000
H    -3.659000000    -0.897000000    -3.676000000
H    -4.732000000    -1.608000000    -4.473000000
O     3.778000000     1.932000000    -3.889000000
H     4.491000000     2.168000000    -4.481000000
H     3.284000000     2.743000000    -3.772000000
O    -1.369000000    -3.394000000     5.871000000
H    -1.015000000    -4.156000000     6.330000000
H    -2.205000000    -3.221000000     6.302000000
O    -2.421000000    -2.889000000     0.635000000
H    -3.109000000    -2.681000000     0.002000000
H    -1.660000000    -2.394000000     0.334000000
O    -5.576000000     0.723000000     3.452000000
H    -5.158000000     1.351000000     2.862000000
H    -6.079000000     0.150000000     2.873000000
O     3.836000000     3.711000000     4.481000000
H     4.444000000     3.010000000     4.244000000
H     3.093000000     3.258000000     4.881000000
O     1.706000000    -3.708000000     2.114000000
H     1.019000000    -4.243000000     2.512000000
H     1.691000000    -3.949000000     1.188000000
O     2.290000000    -0.238000000    -5.388000000
H     2.573000000     0.589000000    -4.998000000
H     1.411000000    -0.381000000    -5.037000000
O    -4.242000000     2.313000000     1.633000000
H    -3.427000000     2.280000000     1.130000000
H    -4.545000000     3.216000000     1.539000000
O     3.131000000     2.726000000     2.068000000
H     2.233000000     2.788000000     1.741000000
H     3.163000000     3.344000000     2.798000000
O     2.736000000    -1.852000000     4.171000000
H     1.878000000    -1.538000000     4.454000000
H     2.553000000    -2.393000000     3.403000000
O     1.614000000     2.643000000     5.514000000
H     0.916000000     2.679000000     4.860000000
H     1.325000000     3.237000000     6.206000000
O     0.930000000    -3.628000000    -4.237000000
H     0.518000000    -2.772000000    -4.123000000
H     1.720000000    -3.587000000    -3.698000000
O     0.779000000     2.925000000    -1.110000000
H     1.558000000     2.381000000    -1.228000000
H     0.700000000     3.027000000    -0.161000000
O     3.328000000    -3.684000000    -2.540000000
H     3.778000000    -3.170000000    -1.869000000
H     4.034000000    -4.060000000    -3.066000000
O     5.207000000     0.787000000    -1.908000000
H     5.267000000     1.572000000    -1.363000000
H     4.783000000     1.087000000    -2.712000000
O     0.168000000    -1.121000000     5.513000000
H    -0.241000000    -1.979000000     5.400000000
H    -0.411000000    -0.517000000     5.049000000
O    -0.714000000    -4.191000000    -1.835000000
H    -1.584000000    -4.379000000    -2.187000000
H    -0.133000000    -4.235000000    -2.595000000
O    -3.103000000     4.350000000     4.038000000
H    -3.734000000     4.644000000     3.380000000
H    -3.531000000     4.526000000     4.876000000
O     0.728000000     3.985000000     1.992000000
H     0.199000000     3.727000000     2.747000000
H     0.225000000     4.685000000     1.575000000
O    -2.044000000    -3.822000000    -4.904000000
H    -1.948000000    -2.874000000    -4.816000000
H    -2.936000000    -3.943000000    -5.231000000
O    -5.558000000     0.480000000     0.056000000
H    -6.373000000     0.965000000     0.184000000
H    -4.892000000     1.012000000     0.492000000
O     2.678000000    -2.567000000    -6.501000000
H     1.827000000    -2.986000000    -6.370000000
H     2.488000000    -1.629000000    -6.487000000
O    -2.115000000     3.251000000    -0.435000000
H    -1.320000000     2.725000000    -0.519000000
H    -1.809000000     4.096000000    -0.106000000
O    -0.870000000     2.852000000     4.124000000
H    -1.700000000     3.322000000     4.045000000
H    -1.112000000     1.928000000     4.069000000
O    -4.570000000     4.554000000    -0.870000000
H    -4.304000000     5.465000000    -0.994000000
H    -3.751000000     4.060000000    -0.897000000
O     5.517000000     3.459000000     0.608000000
H     6.406000000     3.485000000     0.963000000
H     5.034000000     2.895000000     1.212000000
O    -2.221000000     0.321000000     4.505000000
H    -3.008000000     0.612000000     4.966000000
H    -2.534000000    -0.347000000     3.895000000
O    -4.384000000    -1.844000000    -1.055000000
H    -4.244000000    -1.449000000    -1.916000000
H    -4.584000000    -1.104000000    -0.481000000
O     3.162000000     1.371000000     7.471000000
H     2.651000000     1.808000000     6.790000000
H     3.183000000     0.452000000     7.202000000
O     0.470000000     4.037000000    -3.545000000
H     0.436000000     3.605000000    -2.691000000
H     1.239000000     4.605000000    -3.495000000
O     4.142000000    -1.601000000    -0.230000000
H     4.039000000    -0.951000000    -0.925000000
H     5.059000000    -1.524000000     0.036000000
O    -3.907000000    -2.050000000    -7.526000000
H    -3.771000000    -2.941000000    -7.848000000
H    -3.228000000    -1.929000000    -6.862000000
O     5.587000000    -1.371000000    -4.678000000
H     4.710000000    -0.993000000    -4.745000000
H     6.019000000    -1.121000000    -5.495000000
O    -3.538000000     1.283000000    -6.939000000
H    -2.997000000     0.849000000    -7.598000000
H    -3.169000000     1.001000000    -6.102000000
O     0.295000000     0.134000000    -7.598000000
H     1.114000000     0.123000000    -8.094000000
H     0.511000000     0.598000000    -6.789000000
O    -0.486000000    -4.716000000     3.555000000
H    -1.323000000    -4.607000000     3.105000000
H    -0.623000000    -4.317000000     4.415000000
O     0.236000000     1.857000000    -5.230000000
H    -0.618000000     1.564000000    -4.913000000
H     0.452000000     2.608000000    -4.677000000
