158
-3001.94243
C    -1.369000000     0.304000000    -0.097000000
H    -2.401000000     0.636000000    -0.020000000
C    -0.428000000     1.058000000     0.552000000
H    -0.667000000     1.977000000     1.081000000
C     0.886000000     0.692000000     0.523000000
H     1.705000000     1.246000000     0.996000000
C     1.193000000    -0.514000000    -0.124000000
H     2.169000000    -0.990000000    -0.063000000
C     0.234000000    -1.208000000    -0.806000000
H     0.425000000    -2.180000000    -1.254000000
C    -1.084000000    -0.859000000    -0.771000000
C    -2.137000000    -1.637000000    -1.518000000
O    -3.260000000    -1.296000000    -1.320000000
O    -1.835000000    -2.729000000    -2.035000000
O    -6.296000000     2.292000000    -1.002000000
H    -6.140000000     1.645000000    -0.314000000
H    -7.195000000     2.127000000    -1.286000000
O    -2.255000000     0.549000000    -3.989000000
H    -2.875000000     0.371000000    -3.282000000
H    -1.522000000     0.991000000    -3.559000000
O     4.684000000    -2.062000000    -0.853000000
H     4.460000000    -2.975000000    -0.675000000
H     4.967000000    -1.715000000    -0.006000000
O    -3.436000000    -4.812000000    -0.812000000
H    -4.360000000    -4.730000000    -1.049000000
H    -3.035000000    -4.003000000    -1.129000000
O    -4.893000000     1.693000000     2.700000000
H    -5.418000000     0.965000000     2.366000000
H    -4.351000000     1.302000000     3.386000000
O    -3.011000000    -0.378000000     3.652000000
H    -3.384000000    -0.738000000     2.848000000
H    -2.353000000    -1.020000000     3.919000000
O     1.577000000     3.660000000     2.695000000
H     2.505000000     3.493000000     2.533000000
H     1.331000000     3.016000000     3.359000000
O     1.645000000     2.189000000     5.036000000
H     2.519000000     1.799000000     5.066000000
H     1.052000000     1.441000000     4.960000000
O    -4.498000000    -1.508000000     1.004000000
H    -4.031000000    -1.544000000     0.169000000
H    -5.338000000    -1.101000000     0.792000000
O     3.090000000     4.608000000    -0.406000000
H     4.012000000     4.426000000    -0.226000000
H     3.088000000     5.487000000    -0.784000000
O     0.482000000     3.534000000    -1.359000000
H     1.302000000     4.016000000    -1.250000000
H    -0.025000000     3.743000000    -0.575000000
O    -3.887000000    -3.749000000     2.552000000
H    -4.432000000    -4.392000000     2.098000000
H    -3.804000000    -3.025000000     1.932000000
O     5.620000000     3.048000000     4.557000000
H     5.101000000     3.283000000     5.326000000
H     6.006000000     2.201000000     4.779000000
O     4.020000000     0.415000000    -2.939000000
H     4.122000000     1.195000000    -2.394000000
H     4.219000000    -0.314000000    -2.353000000
O     3.367000000    -1.745000000     2.743000000
H     3.033000000    -1.523000000     1.874000000
H     2.748000000    -2.394000000     3.078000000
O     4.329000000     0.244000000     5.335000000
H     4.241000000     0.069000000     6.271000000
H     4.272000000    -0.618000000     4.923000000
O     1.593000000     4.476000000     6.395000000
H     1.769000000     3.716000000     5.841000000
H     1.514000000     5.206000000     5.782000000
O     5.489000000    -3.366000000    -3.185000000
H     5.219000000    -2.745000000    -2.508000000
H     6.444000000    -3.312000000    -3.193000000
O     3.214000000    -4.236000000    -0.172000000
H     3.281000000    -5.013000000    -0.727000000
H     3.793000000    -4.420000000     0.568000000
O    -1.120000000    -3.751000000    -6.529000000
H    -0.654000000    -3.915000000    -7.349000000
H    -2.045000000    -3.759000000    -6.774000000
O    -0.318000000    -1.829000000     2.718000000
H    -0.782000000    -1.252000000     2.111000000
H    -0.028000000    -2.563000000     2.177000000
O     3.930000000     1.780000000     2.651000000
H     3.883000000     0.920000000     3.069000000
H     4.632000000     2.235000000     3.117000000
O     0.529000000    -3.967000000     1.390000000
H     0.147000000    -4.296000000     0.577000000
H     1.474000000    -3.985000000     1.236000000
O    -0.177000000    -4.560000000    -1.194000000
H    -0.748000000    -3.877000000    -1.544000000
H    -0.197000000    -5.252000000    -1.855000000
O    -0.446000000    -6.448000000    -3.130000000
H    -1.394000000    -6.577000000    -3.088000000
H    -0.116000000    -7.236000000    -3.561000000
O    -5.675000000     1.345000000    -3.736000000
H    -5.470000000     1.890000000    -2.977000000
H    -6.632000000     1.334000000    -3.772000000
O    -5.347000000    -4.921000000    -4.977000000
H    -4.718000000    -5.518000000    -5.383000000
H    -4.820000000    -4.176000000    -4.692000000
O    -2.875000000     4.899000000    -1.129000000
H    -2.458000000     4.328000000    -0.484000000
H    -3.803000000     4.891000000    -0.892000000
O     1.070000000     6.273000000     2.133000000
H     1.261000000     5.477000000     2.630000000
H     0.653000000     5.960000000     1.331000000
O    -0.140000000     6.194000000    -0.544000000
H    -0.412000000     6.483000000    -1.415000000
H     0.538000000     6.819000000    -0.285000000
O     0.102000000     0.032000000    -6.391000000
H    -0.590000000     0.560000000    -5.992000000
H     0.090000000    -0.789000000    -5.900000000
O     5.537000000    -0.614000000     1.259000000
H     4.817000000    -0.986000000     1.770000000
H     6.302000000    -0.696000000     1.829000000
O    -6.040000000    -4.687000000    -1.509000000
H    -6.835000000    -4.296000000    -1.871000000
H    -6.355000000    -5.404000000    -0.957000000
O     2.726000000    -1.276000000    -5.031000000
H     1.841000000    -1.638000000    -4.985000000
H     2.845000000    -0.827000000    -4.194000000
O    -1.330000000     3.006000000     5.975000000
H    -0.495000000     3.039000000     5.509000000
H    -1.249000000     3.669000000     6.660000000
O    -8.280000000    -1.009000000    -2.991000000
H    -8.346000000    -0.836000000    -3.930000000
H    -7.345000000    -0.945000000    -2.800000000
O    -2.907000000     4.196000000     1.495000000
H    -3.456000000     3.897000000     2.220000000
H    -2.361000000     4.884000000     1.876000000
O    -3.394000000    -7.278000000     0.153000000
H    -3.995000000    -7.181000000     0.892000000
H    -3.197000000    -6.380000000    -0.114000000
O     0.264000000     1.275000000    -2.980000000
H     0.411000000     2.118000000    -2.551000000
H     0.223000000     0.644000000    -2.262000000
O    -4.882000000    -1.031000000    -5.198000000
H    -4.642000000    -1.427000000    -4.361000000
H    -5.361000000    -0.237000000    -4.959000000
O     4.757000000     1.603000000    -0.312000000
H     4.219000000     2.175000000     0.235000000
H     5.076000000     0.928000000     0.288000000
O     7.486000000     2.907000000     0.555000000
H     7.677000000     3.833000000     0.404000000
H     6.710000000     2.732000000     0.023000000
O     0.317000000    -2.518000000    -4.496000000
H    -0.039000000    -3.011000000    -5.235000000
H    -0.025000000    -2.966000000    -3.722000000
O    -5.616000000    -1.967000000    -2.367000000
H    -4.724000000    -1.852000000    -2.037000000
H    -5.828000000    -2.879000000    -2.171000000
O     1.289000000    -6.982000000     0.266000000
H     0.586000000    -6.964000000     0.915000000
H     1.121000000    -6.222000000    -0.291000000
O    -3.208000000    -3.412000000    -4.051000000
H    -2.438000000    -3.390000000    -4.619000000
H    -2.911000000    -3.024000000    -3.228000000
O     0.787000000    -0.404000000     4.642000000
H     0.287000000    -0.816000000     3.938000000
H     0.750000000    -1.033000000     5.362000000
O    -2.649000000     3.866000000    -3.837000000
H    -2.899000000     4.790000000    -3.836000000
H    -2.558000000     3.641000000    -2.910000000
