158
-3027.20023
C    -1.449000000    -0.300000000    -0.359000000
H    -2.514000000    -0.440000000    -0.525000000
C    -0.974000000     0.786000000     0.348000000
H    -1.677000000     1.515000000     0.743000000
C     0.413000000     1.042000000     0.561000000
H     0.818000000     1.896000000     1.111000000
C     1.283000000     0.006000000     0.217000000
H     2.335000000     0.248000000     0.346000000
C     0.793000000    -1.135000000    -0.462000000
H     1.539000000    -1.877000000    -0.734000000
C    -0.590000000    -1.294000000    -0.787000000
C    -0.998000000    -2.484000000    -1.552000000
O    -2.157000000    -2.407000000    -1.967000000
O    -0.220000000    -3.261000000    -1.990000000
O    -3.837000000     3.994000000     0.219000000
H    -3.072000000     4.393000000     0.633000000
H    -4.034000000     3.232000000     0.763000000
O    -0.977000000     0.689000000    -5.620000000
H    -1.707000000     0.942000000    -6.185000000
H    -1.238000000    -0.156000000    -5.256000000
O    -1.644000000     1.630000000     3.921000000
H    -0.936000000     2.253000000     3.759000000
H    -1.217000000     0.774000000     3.912000000
O     4.524000000    -2.578000000    -0.627000000
H     4.635000000    -2.786000000    -1.555000000
H     5.386000000    -2.272000000    -0.346000000
O    -3.868000000     4.134000000    -2.619000000
H    -4.367000000     3.334000000    -2.781000000
H    -3.780000000     4.173000000    -1.667000000
O    -3.123000000     3.904000000     5.724000000
H    -3.547000000     4.568000000     5.181000000
H    -2.498000000     3.478000000     5.136000000
O    -1.724000000    -5.524000000    -2.059000000
H    -2.610000000    -5.545000000    -1.699000000
H    -1.382000000    -4.667000000    -1.805000000
O    -4.210000000     1.770000000     2.079000000
H    -4.608000000     0.909000000     1.946000000
H    -3.410000000     1.591000000     2.572000000
O    -0.028000000    -0.912000000     2.783000000
H    -0.811000000    -1.461000000     2.829000000
H    -0.146000000    -0.394000000     1.987000000
O     3.817000000     4.427000000     3.086000000
H     4.368000000     4.367000000     2.306000000
H     3.463000000     3.545000000     3.198000000
O     2.610000000     5.269000000     5.529000000
H     2.437000000     6.196000000     5.366000000
H     3.133000000     4.987000000     4.779000000
O    -6.670000000    -1.039000000    -1.929000000
H    -6.273000000    -1.351000000    -2.741000000
H    -7.286000000    -0.361000000    -2.208000000
O     2.451000000     2.028000000     3.374000000
H     2.605000000     1.868000000     4.305000000
H     2.738000000     1.223000000     2.942000000
O    -4.252000000    -2.886000000    -0.321000000
H    -3.566000000    -2.428000000    -0.807000000
H    -4.694000000    -2.197000000     0.174000000
O     4.402000000     4.806000000    -0.223000000
H     5.005000000     4.356000000     0.369000000
H     4.894000000     4.904000000    -1.038000000
O     1.998000000     3.857000000    -1.543000000
H     2.853000000     4.048000000    -1.159000000
H     1.413000000     4.513000000    -1.164000000
O    -2.356000000    -2.686000000     2.146000000
H    -1.515000000    -3.142000000     2.121000000
H    -2.751000000    -2.865000000     1.293000000
O     0.493000000     3.709000000     6.574000000
H     1.411000000     3.886000000     6.371000000
H     0.434000000     2.754000000     6.606000000
O     0.735000000     1.071000000     6.063000000
H     1.649000000     1.179000000     5.798000000
H     0.765000000     0.422000000     6.765000000
O     1.186000000    -5.619000000    -4.627000000
H     0.920000000    -6.534000000    -4.713000000
H     1.755000000    -5.463000000    -5.381000000
O     0.558000000     7.048000000     3.821000000
H    -0.010000000     7.662000000     3.354000000
H     1.271000000     6.869000000     3.208000000
O     5.697000000    -1.340000000     3.339000000
H     5.850000000    -2.024000000     3.991000000
H     4.746000000    -1.327000000     3.224000000
O     6.130000000     1.397000000     3.319000000
H     6.126000000     0.440000000     3.322000000
H     5.212000000     1.641000000     3.437000000
O     4.626000000    -5.647000000    -2.049000000
H     3.988000000    -4.939000000    -1.958000000
H     4.577000000    -6.123000000    -1.220000000
O     0.246000000    -3.154000000    -6.922000000
H     0.722000000    -3.867000000    -7.347000000
H    -0.333000000    -3.590000000    -6.297000000
O     2.840000000    -3.945000000     1.593000000
H     3.445000000    -3.528000000     0.981000000
H     3.088000000    -4.870000000     1.583000000
O     6.118000000     3.610000000     1.520000000
H     6.093000000     3.242000000     2.404000000
H     6.662000000     4.393000000     1.602000000
O     0.000000000    -4.311000000     1.557000000
H    -0.092000000    -5.241000000     1.764000000
H     0.943000000    -4.151000000     1.585000000
O    -5.800000000    -0.607000000     0.935000000
H    -5.882000000    -0.436000000    -0.004000000
H    -6.414000000    -1.322000000     1.102000000
O     3.841000000     1.090000000     5.462000000
H     3.852000000     1.621000000     6.258000000
H     4.278000000     0.276000000     5.711000000
O     2.046000000    -4.717000000    -2.020000000
H     1.428000000    -4.041000000    -1.744000000
H     1.755000000    -4.964000000    -2.898000000
O    -2.830000000    -0.399000000    -3.445000000
H    -2.723000000    -1.130000000    -2.836000000
H    -3.421000000     0.204000000    -2.993000000
O    -4.814000000     1.513000000    -3.517000000
H    -4.245000000     1.633000000    -4.277000000
H    -5.695000000     1.690000000    -3.847000000
O    -3.305000000    -5.026000000    -6.051000000
H    -2.889000000    -4.805000000    -6.884000000
H    -2.741000000    -4.627000000    -5.389000000
O    -1.154000000     4.436000000    -2.428000000
H    -1.062000000     4.241000000    -1.495000000
H    -2.095000000     4.382000000    -2.592000000
O     2.950000000     6.859000000     2.658000000
H     3.212000000     5.943000000     2.746000000
H     3.328000000     7.137000000     1.823000000
O     0.646000000     6.056000000    -0.590000000
H     0.110000000     6.665000000    -1.098000000
H     1.547000000     6.326000000    -0.765000000
O     2.436000000    -0.130000000    -4.882000000
H     2.443000000     0.564000000    -4.222000000
H     1.652000000    -0.641000000    -4.684000000
O     3.936000000    -2.651000000    -3.738000000
H     3.292000000    -1.959000000    -3.589000000
H     3.488000000    -3.456000000    -3.479000000
O     0.134000000     3.695000000     3.124000000
H     0.969000000     3.227000000     3.089000000
H     0.179000000     4.205000000     3.932000000
O    -1.360000000     4.891000000     0.832000000
H    -0.952000000     4.581000000     1.640000000
H    -0.632000000     5.232000000     0.312000000
O     2.187000000     1.158000000    -2.297000000
H     2.144000000     2.084000000    -2.056000000
H     1.636000000     0.716000000    -1.652000000
O    -3.384000000    -1.804000000    -5.698000000
H    -3.494000000    -2.717000000    -5.434000000
H    -3.048000000    -1.367000000    -4.915000000
O     0.906000000    -2.227000000    -4.033000000
H     0.637000000    -2.835000000    -4.721000000
H     0.629000000    -2.649000000    -3.219000000
O    -5.192000000    -4.327000000    -2.432000000
H    -4.796000000    -3.782000000    -1.752000000
H    -4.962000000    -5.223000000    -2.186000000
O     1.338000000    -7.471000000    -1.511000000
H     0.531000000    -7.374000000    -1.006000000
H     1.621000000    -6.574000000    -1.686000000
O    -1.473000000    -3.913000000    -4.564000000
H    -1.001000000    -4.545000000    -4.022000000
H    -1.782000000    -3.251000000    -3.945000000
O     2.933000000    -1.324000000     2.981000000
H     2.878000000    -2.208000000     2.617000000
H     2.023000000    -1.075000000     3.143000000
