158
-3046.58775
C    -1.446000000     0.394000000    -0.250000000
H    -2.401000000     0.909000000    -0.310000000
C    -0.744000000     0.680000000     0.906000000
H    -1.088000000     1.385000000     1.659000000
C     0.611000000     0.182000000     1.011000000
H     1.205000000     0.452000000     1.883000000
C     1.183000000    -0.547000000     0.042000000
H     2.213000000    -0.877000000     0.146000000
C     0.446000000    -0.878000000    -1.092000000
H     0.882000000    -1.543000000    -1.834000000
C    -0.862000000    -0.465000000    -1.199000000
C    -1.509000000    -0.610000000    -2.610000000
O    -2.714000000    -0.414000000    -2.696000000
O    -0.849000000    -0.964000000    -3.551000000
O    -6.707000000     3.130000000     0.469000000
H    -6.796000000     3.327000000     1.401000000
H    -6.612000000     2.179000000     0.433000000
O    -1.376000000    -3.083000000    -6.809000000
H    -0.550000000    -2.780000000    -6.431000000
H    -1.953000000    -3.206000000    -6.055000000
O    -5.148000000     0.296000000    -3.066000000
H    -4.258000000     0.008000000    -2.867000000
H    -5.672000000    -0.017000000    -2.329000000
O     5.986000000     0.281000000     3.589000000
H     6.752000000     0.740000000     3.245000000
H     5.352000000     0.975000000     3.770000000
O    -2.264000000     0.496000000    -5.747000000
H    -2.788000000     1.190000000    -5.345000000
H    -1.743000000     0.142000000    -5.026000000
O    -4.577000000     3.373000000    -3.348000000
H    -4.839000000     2.522000000    -2.996000000
H    -3.623000000     3.380000000    -3.273000000
O     5.081000000    -0.835000000    -1.742000000
H     5.715000000    -1.543000000    -1.629000000
H     4.837000000    -0.587000000    -0.850000000
O    -5.161000000    -3.855000000    -1.981000000
H    -4.289000000    -4.135000000    -2.260000000
H    -5.582000000    -4.657000000    -1.671000000
O    -6.737000000     0.434000000     0.688000000
H    -7.150000000     0.059000000    -0.090000000
H    -6.040000000    -0.183000000     0.910000000
O    -4.272000000    -2.119000000     2.165000000
H    -4.459000000    -1.600000000     1.383000000
H    -3.354000000    -2.371000000     2.071000000
O     0.245000000     4.197000000     1.045000000
H     0.496000000     3.419000000     0.546000000
H     0.938000000     4.832000000     0.863000000
O    -1.431000000    -2.188000000     1.680000000
H    -0.877000000    -1.496000000     1.318000000
H    -1.549000000    -2.803000000     0.957000000
O    -4.417000000    -1.301000000    -0.497000000
H    -3.633000000    -1.058000000    -0.989000000
H    -4.785000000    -2.039000000    -0.983000000
O     3.860000000     1.961000000    -0.076000000
H     4.051000000     1.219000000     0.498000000
H     4.577000000     2.576000000     0.081000000
O     1.283000000     2.774000000    -1.011000000
H     2.191000000     2.889000000    -0.731000000
H     1.051000000     1.894000000    -0.716000000
O    -0.065000000     2.866000000    -6.464000000
H     0.041000000     1.936000000    -6.265000000
H    -0.663000000     3.189000000    -5.790000000
O    -0.754000000    -2.978000000     4.344000000
H    -1.613000000    -3.068000000     4.757000000
H    -0.944000000    -2.895000000     3.410000000
O     1.105000000     0.918000000    -4.540000000
H     0.564000000     0.224000000    -4.163000000
H     1.754000000     0.456000000    -5.070000000
O    -0.934000000     4.036000000     3.454000000
H    -0.370000000     3.883000000     2.695000000
H    -1.763000000     4.334000000     3.079000000
O     5.017000000     1.616000000    -2.869000000
H     5.047000000     2.322000000    -2.224000000
H     5.076000000     0.814000000    -2.350000000
O     1.258000000    -1.205000000     4.895000000
H     0.713000000    -1.862000000     4.463000000
H     1.834000000    -1.711000000     5.469000000
O     0.508000000     1.531000000     4.965000000
H    -0.400000000     1.726000000     4.733000000
H     0.615000000     0.603000000     4.755000000
O     1.395000000     2.526000000     7.755000000
H     1.044000000     2.624000000     6.870000000
H     2.155000000     3.107000000     7.777000000
O     3.439000000    -2.253000000    -3.409000000
H     4.077000000    -1.635000000    -3.053000000
H     3.106000000    -2.721000000    -2.643000000
O     2.117000000    -3.745000000    -0.020000000
H     2.269000000    -3.324000000     0.826000000
H     2.490000000    -4.621000000     0.077000000
O     2.230000000     5.819000000     1.287000000
H     2.333000000     6.218000000     0.423000000
H     3.105000000     5.504000000     1.511000000
O    -3.377000000     0.582000000     6.220000000
H    -3.521000000    -0.362000000     6.278000000
H    -3.042000000     0.719000000     5.334000000
O     2.226000000     3.747000000     4.185000000
H     1.616000000     4.329000000     3.731000000
H     1.670000000     3.071000000     4.571000000
O     7.499000000     0.999000000     0.111000000
H     7.561000000     1.622000000     0.835000000
H     6.810000000     0.390000000     0.377000000
O    -0.666000000    -4.035000000    -0.318000000
H    -1.039000000    -4.149000000    -1.192000000
H     0.208000000    -3.680000000    -0.476000000
O    -3.134000000     3.498000000    -0.848000000
H    -3.776000000     3.163000000    -0.223000000
H    -3.655000000     3.965000000    -1.500000000
O    -1.240000000    -4.706000000    -3.148000000
H    -1.521000000    -3.953000000    -3.667000000
H    -2.034000000    -5.229000000    -3.035000000
O     1.578000000    -5.269000000    -5.209000000
H     2.227000000    -5.185000000    -5.908000000
H     1.376000000    -4.367000000    -4.961000000
O    -7.359000000     1.432000000    -4.501000000
H    -6.589000000     1.056000000    -4.073000000
H    -7.359000000     2.350000000    -4.230000000
O    -1.809000000    -0.776000000    -8.216000000
H    -2.042000000    -0.260000000    -7.444000000
H    -1.833000000    -1.684000000    -7.914000000
O     3.094000000    -2.610000000     2.623000000
H     2.816000000    -1.884000000     3.181000000
H     2.757000000    -3.392000000     3.060000000
O     2.661000000    -0.314000000    -6.498000000
H     3.592000000    -0.213000000    -6.696000000
H     2.228000000     0.346000000    -7.040000000
O    -2.152000000     0.414000000     3.868000000
H    -2.203000000    -0.265000000     3.195000000
H    -2.737000000     1.104000000     3.556000000
O    -3.896000000     2.178000000     2.976000000
H    -3.897000000     2.604000000     3.833000000
H    -4.337000000     2.801000000     2.398000000
O    -0.749000000     4.565000000    -1.991000000
H    -1.449000000     4.304000000    -1.393000000
H     0.008000000     4.048000000    -1.715000000
O     4.505000000    -0.333000000     1.313000000
H     5.061000000    -0.261000000     2.089000000
H     4.021000000    -1.149000000     1.440000000
O     4.883000000     3.046000000     3.925000000
H     5.294000000     3.502000000     3.190000000
H     4.056000000     3.508000000     4.061000000
O     0.808000000    -2.605000000    -4.976000000
H     0.252000000    -2.088000000    -4.392000000
H     1.669000000    -2.190000000    -4.916000000
O    -4.948000000    -1.575000000    -5.452000000
H    -5.258000000    -1.085000000    -6.214000000
H    -5.020000000    -0.957000000    -4.724000000
O    -2.830000000    -2.669000000    -4.522000000
H    -2.434000000    -1.898000000    -4.116000000
H    -3.646000000    -2.346000000    -4.905000000
O     0.851000000    -6.303000000    -2.721000000
H     1.553000000    -6.138000000    -3.349000000
H     0.135000000    -5.736000000    -3.007000000
O    -0.156000000    -1.024000000     7.350000000
H     0.329000000    -1.092000000     6.527000000
H    -0.836000000    -0.374000000     7.174000000
O    -1.760000000     3.554000000    -4.375000000
H    -1.264000000     3.736000000    -3.577000000
H    -2.066000000     4.412000000    -4.668000000
