158
-3019.06768
C    -0.842000000    -0.895000000    -0.944000000
H    -1.472000000    -1.542000000    -1.549000000
C    -1.370000000     0.030000000    -0.078000000
H    -2.423000000     0.298000000    -0.108000000
C    -0.519000000     0.860000000     0.700000000
H    -0.907000000     1.722000000     1.309000000
C     0.888000000     0.716000000     0.677000000
H     1.493000000     1.443000000     1.211000000
C     1.452000000    -0.308000000    -0.066000000
H     2.535000000    -0.392000000    -0.008000000
C     0.613000000    -1.141000000    -0.897000000
C     1.327000000    -2.186000000    -1.668000000
O     0.886000000    -3.313000000    -1.816000000
O     2.472000000    -1.983000000    -1.984000000
O     0.320000000     0.275000000    -5.261000000
H     1.064000000    -0.257000000    -4.980000000
H     0.690000000     1.147000000    -5.402000000
O    -0.150000000     2.493000000    -1.949000000
H    -0.262000000     3.151000000    -1.264000000
H     0.197000000     1.727000000    -1.491000000
O     4.643000000     4.029000000     3.120000000
H     3.865000000     4.096000000     2.567000000
H     5.074000000     4.879000000     3.031000000
O     4.272000000    -2.144000000     4.588000000
H     5.134000000    -1.761000000     4.747000000
H     3.808000000    -1.485000000     4.070000000
O    -3.436000000    -2.960000000    -6.232000000
H    -2.940000000    -2.309000000    -5.736000000
H    -4.118000000    -3.253000000    -5.629000000
O    -1.670000000    -1.711000000    -4.355000000
H    -2.518000000    -1.509000000    -3.959000000
H    -1.276000000    -0.856000000    -4.527000000
O    -2.733000000    -0.895000000     2.568000000
H    -2.364000000    -1.017000000     1.693000000
H    -3.597000000    -1.304000000     2.522000000
O    -4.697000000    -0.992000000    -0.262000000
H    -4.771000000    -1.771000000     0.290000000
H    -5.087000000    -0.291000000     0.260000000
O    -0.179000000     4.098000000     0.165000000
H    -0.945000000     3.820000000     0.667000000
H    -0.319000000     5.033000000     0.013000000
O     0.826000000     2.412000000     4.157000000
H     0.629000000     3.103000000     3.525000000
H    -0.024000000     2.177000000     4.529000000
O    -2.024000000     1.447000000     4.392000000
H    -2.252000000     0.649000000     3.915000000
H    -2.076000000     2.142000000     3.736000000
O     2.923000000    -4.290000000     2.460000000
H     3.391000000    -5.099000000     2.667000000
H     3.205000000    -4.070000000     1.572000000
O     0.902000000    -2.839000000     3.755000000
H     1.199000000    -1.958000000     3.980000000
H     1.655000000    -3.242000000     3.323000000
O    -4.804000000    -2.637000000     1.892000000
H    -4.692000000    -3.575000000     2.047000000
H    -5.559000000    -2.394000000     2.427000000
O    -0.673000000     0.980000000     6.899000000
H     0.073000000     0.441000000     6.635000000
H    -1.285000000     0.918000000     6.166000000
O     2.345000000     2.477000000    -4.235000000
H     2.523000000     3.112000000    -3.542000000
H     2.741000000     1.663000000    -3.922000000
O    -6.038000000     1.311000000    -1.630000000
H    -5.464000000     2.073000000    -1.563000000
H    -5.572000000     0.618000000    -1.162000000
O     2.346000000    -0.042000000     3.669000000
H     3.120000000     0.136000000     3.134000000
H     1.891000000     0.798000000     3.720000000
O    -3.005000000    -5.543000000    -2.924000000
H    -2.728000000    -5.186000000    -3.769000000
H    -2.579000000    -4.982000000    -2.276000000
O    -0.034000000     4.904000000     3.246000000
H    -0.041000000     5.836000000     3.464000000
H     0.833000000     4.752000000     2.871000000
O     3.900000000    -3.246000000    -3.792000000
H     3.368000000    -3.248000000    -4.588000000
H     3.584000000    -2.491000000    -3.295000000
O     2.015000000    -5.711000000    -1.634000000
H     1.674000000    -4.817000000    -1.616000000
H     2.883000000    -5.644000000    -1.237000000
O     6.311000000    -1.756000000    -1.085000000
H     6.455000000    -2.118000000    -1.959000000
H     7.188000000    -1.681000000    -0.709000000
O     2.335000000    -2.237000000    -5.863000000
H     2.172000000    -3.177000000    -5.946000000
H     1.826000000    -1.843000000    -6.571000000
O    -1.619000000    -4.306000000    -1.046000000
H    -1.649000000    -3.832000000    -0.215000000
H    -0.737000000    -4.146000000    -1.381000000
O    -0.317000000    -4.130000000    -4.246000000
H     0.139000000    -3.945000000    -3.425000000
H    -0.774000000    -3.316000000    -4.455000000
O     6.255000000     2.141000000     0.357000000
H     7.071000000     2.029000000    -0.130000000
H     6.451000000     2.823000000     1.000000000
O     2.284000000     4.302000000     1.641000000
H     2.767000000     4.941000000     1.116000000
H     1.559000000     4.029000000     1.079000000
O    -3.695000000    -0.929000000    -2.777000000
H    -3.914000000    -1.179000000    -1.879000000
H    -3.560000000     0.017000000    -2.737000000
O    -0.408000000    -3.848000000     1.442000000
H     0.021000000    -3.476000000     2.212000000
H     0.305000000    -4.240000000     0.936000000
O    -1.505000000     6.610000000     0.510000000
H    -0.703000000     7.086000000     0.293000000
H    -1.593000000     6.709000000     1.458000000
O     4.117000000    -3.643000000    -0.096000000
H     3.331000000    -3.510000000    -0.627000000
H     4.551000000    -2.790000000    -0.093000000
O     0.120000000    -7.822000000    -2.864000000
H     0.521000000    -8.549000000    -2.387000000
H     0.551000000    -7.041000000    -2.517000000
O     6.202000000    -5.286000000    -1.143000000
H     5.387000000    -4.898000000    -0.823000000
H     6.106000000    -5.293000000    -2.095000000
O     6.636000000    -2.250000000    -3.977000000
H     5.861000000    -2.789000000    -3.816000000
H     6.412000000    -1.735000000    -4.752000000
O    -2.349000000     3.573000000     2.424000000
H    -1.637000000     4.058000000     2.841000000
H    -3.146000000     3.976000000     2.768000000
O     6.746000000    -2.093000000     1.663000000
H     6.405000000    -1.303000000     1.245000000
H     6.367000000    -2.814000000     1.159000000
O    -4.394000000     6.379000000     0.263000000
H    -3.441000000     6.454000000     0.217000000
H    -4.548000000     5.511000000     0.637000000
O    -6.150000000     0.801000000     1.504000000
H    -6.229000000     1.674000000     1.121000000
H    -6.339000000     0.929000000     2.434000000
O    -3.214000000     1.920000000    -2.508000000
H    -2.266000000     1.817000000    -2.437000000
H    -3.381000000     2.813000000    -2.208000000
O     3.639000000     2.357000000    -0.736000000
H     4.552000000     2.138000000    -0.554000000
H     3.516000000     3.220000000    -0.341000000
O     5.955000000     1.560000000    -3.406000000
H     5.388000000     0.836000000    -3.141000000
H     6.080000000     1.435000000    -4.346000000
O     3.739000000     0.242000000    -2.553000000
H     3.596000000     0.855000000    -1.832000000
H     3.415000000    -0.596000000    -2.223000000
O    -6.309000000    -3.259000000    -1.936000000
H    -7.090000000    -2.890000000    -1.522000000
H    -5.613000000    -2.632000000    -1.736000000
O    -0.541000000    -6.651000000    -5.223000000
H    -0.498000000    -5.774000000    -4.843000000
H    -0.290000000    -7.235000000    -4.506000000
O     4.675000000    -5.986000000    -3.545000000
H     4.031000000    -6.522000000    -4.007000000
H     4.538000000    -5.101000000    -3.882000000
O    -1.707000000    -2.441000000     4.559000000
H    -0.828000000    -2.719000000     4.302000000
H    -2.024000000    -1.930000000     3.815000000
O     4.438000000     0.719000000     2.267000000
H     5.034000000     1.141000000     2.886000000
H     4.654000000     1.111000000     1.422000000
