158
-3016.23580
C    -1.083000000    -0.960000000    -0.317000000
H    -1.996000000    -1.489000000    -0.577000000
C    -1.198000000     0.221000000     0.419000000
H    -2.150000000     0.501000000     0.862000000
C    -0.095000000     1.010000000     0.689000000
H    -0.107000000     1.941000000     1.254000000
C     1.132000000     0.627000000     0.253000000
H     2.006000000     1.213000000     0.525000000
C     1.262000000    -0.578000000    -0.527000000
H     2.272000000    -0.835000000    -0.834000000
C     0.167000000    -1.377000000    -0.851000000
C     0.295000000    -2.488000000    -1.865000000
O    -0.500000000    -3.355000000    -1.968000000
O     1.262000000    -2.466000000    -2.581000000
O    -1.373000000     0.243000000    -5.831000000
H    -0.530000000    -0.202000000    -5.743000000
H    -1.567000000     0.566000000    -4.951000000
O     5.954000000     3.605000000    -1.068000000
H     5.576000000     4.484000000    -1.062000000
H     5.474000000     3.142000000    -1.755000000
O     1.427000000    -0.171000000    -3.809000000
H     0.663000000     0.138000000    -3.321000000
H     1.429000000    -1.119000000    -3.674000000
O    -2.637000000    -7.212000000    -4.793000000
H    -1.823000000    -6.966000000    -4.353000000
H    -3.148000000    -6.403000000    -4.821000000
O     3.883000000     5.437000000     3.451000000
H     3.850000000     5.003000000     4.304000000
H     4.508000000     4.920000000     2.943000000
O     3.045000000     5.265000000     0.389000000
H     3.648000000     4.825000000     0.988000000
H     3.615000000     5.715000000    -0.236000000
O    -5.216000000    -1.762000000    -3.575000000
H    -5.928000000    -1.361000000    -3.077000000
H    -4.431000000    -1.295000000    -3.290000000
O    -2.037000000    -0.647000000     3.734000000
H    -2.480000000    -0.246000000     2.986000000
H    -2.720000000    -1.157000000     4.170000000
O    -1.140000000     1.439000000    -3.452000000
H    -0.361000000     1.586000000    -2.915000000
H    -1.307000000     2.285000000    -3.867000000
O     1.438000000     3.146000000     6.306000000
H     1.560000000     2.221000000     6.092000000
H     0.659000000     3.162000000     6.862000000
O     4.636000000     3.191000000     1.718000000
H     5.474000000     3.616000000     1.537000000
H     4.549000000     2.529000000     1.032000000
O     2.518000000    -3.987000000     1.716000000
H     2.588000000    -4.136000000     0.773000000
H     3.401000000    -3.736000000     1.986000000
O    -0.014000000    -2.587000000     2.017000000
H    -0.162000000    -1.780000000     1.523000000
H     0.938000000    -2.646000000     2.098000000
O    -2.504000000     0.095000000     6.585000000
H    -2.050000000    -0.110000000     5.768000000
H    -1.904000000     0.676000000     7.053000000
O     0.257000000     4.404000000    -0.238000000
H     0.494000000     4.692000000    -1.119000000
H     1.060000000     4.512000000     0.273000000
O    -4.697000000    -2.181000000     1.575000000
H    -4.127000000    -2.745000000     2.098000000
H    -4.802000000    -2.649000000     0.747000000
O     2.544000000    -7.529000000    -1.255000000
H     2.021000000    -6.748000000    -1.437000000
H     1.964000000    -8.260000000    -1.466000000
O     3.250000000     1.346000000    -5.368000000
H     2.766000000     1.610000000    -6.151000000
H     2.584000000     0.980000000    -4.787000000
O    -6.284000000     2.110000000     2.064000000
H    -6.100000000     2.700000000     2.795000000
H    -6.395000000     2.689000000     1.311000000
O    -0.263000000     7.543000000     0.342000000
H    -0.202000000     8.490000000     0.210000000
H    -0.157000000     7.172000000    -0.534000000
O    -4.480000000     5.359000000     1.224000000
H    -4.198000000     6.062000000     0.638000000
H    -5.052000000     5.792000000     1.858000000
O     0.554000000     0.379000000     4.431000000
H     0.939000000     1.062000000     3.882000000
H    -0.125000000    -0.015000000     3.884000000
O    -4.019000000     4.952000000     4.028000000
H    -4.284000000     4.130000000     4.440000000
H    -3.524000000     4.684000000     3.254000000
O     1.614000000    -3.673000000    -4.833000000
H     1.428000000    -2.915000000    -5.387000000
H     1.654000000    -3.317000000    -3.945000000
O     0.643000000    -5.628000000    -1.809000000
H     0.417000000    -4.699000000    -1.871000000
H     0.104000000    -5.957000000    -1.090000000
O     5.834000000    -0.132000000    -1.968000000
H     6.354000000    -0.364000000    -2.738000000
H     6.472000000    -0.075000000    -1.256000000
O    -4.469000000    -4.674000000    -4.155000000
H    -3.656000000    -4.169000000    -4.146000000
H    -5.119000000    -4.076000000    -4.525000000
O    -0.040000000    -2.438000000    -6.975000000
H     0.019000000    -1.997000000    -7.822000000
H    -0.156000000    -3.363000000    -7.193000000
O    -2.655000000    -5.102000000    -0.870000000
H    -2.139000000    -5.881000000    -0.663000000
H    -2.013000000    -4.465000000    -1.184000000
O     2.465000000     4.004000000    -2.794000000
H     2.435000000     3.115000000    -2.439000000
H     3.359000000     4.100000000    -3.121000000
O    -2.462000000    -2.924000000    -3.749000000
H    -1.648000000    -3.276000000    -3.389000000
H    -2.678000000    -2.188000000    -3.176000000
O     1.652000000     2.477000000     3.420000000
H     1.615000000     3.289000000     3.926000000
H     2.324000000     2.638000000     2.758000000
O    -0.945000000     5.770000000     2.404000000
H    -0.694000000     6.204000000     1.588000000
H    -1.409000000     4.982000000     2.124000000
O    -5.366000000    -3.882000000    -0.973000000
H    -4.579000000    -4.399000000    -0.801000000
H    -5.276000000    -3.604000000    -1.884000000
O    -1.101000000    -7.148000000     0.079000000
H    -1.153000000    -8.101000000     0.149000000
H    -0.582000000    -6.880000000     0.838000000
O    -2.519000000     3.364000000    -1.281000000
H    -1.589000000     3.383000000    -1.054000000
H    -2.678000000     4.202000000    -1.715000000
O     3.245000000    -4.434000000    -1.005000000
H     2.739000000    -3.979000000    -1.679000000
H     3.808000000    -5.034000000    -1.494000000
O     3.848000000    -5.086000000    -3.881000000
H     3.214000000    -4.465000000    -4.240000000
H     4.615000000    -4.552000000    -3.676000000
O     0.825000000     6.000000000     4.549000000
H     0.301000000     5.632000000     5.261000000
H     0.308000000     5.834000000     3.761000000
O    -2.639000000     3.506000000     2.123000000
H    -3.195000000     3.897000000     1.450000000
H    -2.864000000     2.576000000     2.110000000
O    -4.531000000     1.434000000    -0.856000000
H    -4.021000000     2.226000000    -0.686000000
H    -5.441000000     1.702000000    -0.725000000
O    -4.286000000     0.349000000     2.302000000
H    -5.160000000     0.724000000     2.194000000
H    -4.407000000    -0.589000000     2.154000000
O    -3.273000000    -0.089000000    -2.693000000
H    -2.438000000     0.377000000    -2.640000000
H    -3.837000000     0.358000000    -2.062000000
O     4.144000000    -1.799000000    -3.316000000
H     4.879000000    -1.370000000    -2.879000000
H     3.450000000    -1.818000000    -2.657000000
O     4.830000000     2.094000000    -3.104000000
H     5.155000000     1.306000000    -2.668000000
H     4.538000000     1.788000000    -3.963000000
O     4.526000000    -0.917000000    -5.909000000
H     4.213000000    -0.026000000    -5.754000000
H     4.271000000    -1.401000000    -5.123000000
O    -0.209000000    -5.830000000    -4.351000000
H     0.110000000    -5.118000000    -4.906000000
H     0.281000000    -5.733000000    -3.534000000
O    -2.417000000    -3.937000000     2.495000000
H    -1.616000000    -3.430000000     2.368000000
H    -2.768000000    -3.626000000     3.330000000
