158
-3030.89335
C     0.090000000    -1.450000000    -0.475000000
H     0.087000000    -2.524000000    -0.644000000
C    -1.073000000    -0.839000000     0.019000000
H    -2.000000000    -1.406000000     0.056000000
C    -1.071000000     0.527000000     0.342000000
H    -2.056000000     1.003000000     0.668000000
C     0.148000000     1.259000000     0.223000000
H     0.125000000     2.328000000     0.418000000
C     1.335000000     0.667000000    -0.161000000
H     2.206000000     1.282000000    -0.377000000
C     1.348000000    -0.708000000    -0.473000000
C     2.612000000    -1.422000000    -0.795000000
O     2.659000000    -2.613000000    -0.620000000
O     3.628000000    -0.744000000    -0.873000000
O    -4.426000000    -1.115000000     1.107000000
H    -4.493000000    -0.454000000     1.797000000
H    -4.049000000    -1.879000000     1.542000000
O     1.385000000     2.076000000    -3.315000000
H     2.193000000     2.109000000    -2.803000000
H     0.737000000     2.520000000    -2.768000000
O    -2.747000000    -1.357000000     4.176000000
H    -1.945000000    -0.876000000     3.973000000
H    -3.061000000    -0.965000000     4.991000000
O    -3.131000000     5.208000000     1.628000000
H    -3.497000000     5.463000000     0.781000000
H    -3.730000000     4.536000000     1.955000000
O    -5.256000000     3.904000000     2.855000000
H    -5.532000000     4.470000000     3.576000000
H    -5.869000000     3.169000000     2.879000000
O     0.844000000    -0.098000000     5.591000000
H     1.156000000     0.806000000     5.614000000
H     0.245000000    -0.126000000     4.845000000
O    -4.101000000     5.759000000    -0.687000000
H    -3.598000000     5.138000000    -1.213000000
H    -4.876000000     5.949000000    -1.215000000
O    -1.491000000     5.477000000     3.453000000
H    -0.909000000     6.137000000     3.075000000
H    -2.179000000     5.361000000     2.798000000
O     1.486000000    -0.631000000    -3.775000000
H     1.182000000     0.222000000    -3.465000000
H     0.689000000    -1.155000000    -3.854000000
O    -0.676000000    -5.372000000    -0.691000000
H    -0.527000000    -4.841000000    -1.473000000
H     0.108000000    -5.240000000    -0.158000000
O     3.151000000     4.061000000    -1.824000000
H     4.048000000     3.920000000    -2.128000000
H     2.736000000     4.563000000    -2.526000000
O    -0.392000000    -0.410000000     3.338000000
H    -0.485000000    -0.168000000     2.416000000
H     0.394000000    -0.955000000     3.364000000
O     4.687000000    -4.738000000     2.621000000
H     4.435000000    -4.580000000     1.711000000
H     5.499000000    -5.241000000     2.561000000
O     7.768000000    -0.326000000    -0.158000000
H     7.831000000     0.188000000    -0.963000000
H     7.990000000     0.291000000     0.539000000
O    -4.954000000    -1.107000000    -1.549000000
H    -5.810000000    -0.717000000    -1.369000000
H    -4.500000000    -1.087000000    -0.707000000
O    -2.349000000     4.338000000    -2.008000000
H    -2.072000000     3.459000000    -2.267000000
H    -1.544000000     4.855000000    -2.015000000
O    -1.241000000    -6.954000000     1.772000000
H    -1.198000000    -6.428000000     0.974000000
H    -0.436000000    -6.741000000     2.243000000
O     5.661000000     3.196000000    -2.744000000
H     5.917000000     3.116000000    -3.663000000
H     5.338000000     2.327000000    -2.508000000
O     2.113000000     5.645000000     0.989000000
H     2.420000000     5.591000000     0.084000000
H     1.220000000     5.982000000     0.919000000
O     1.343000000    -4.567000000     0.929000000
H     1.539000000    -4.392000000     1.849000000
H     1.683000000    -3.804000000     0.461000000
O    -1.926000000    -4.545000000    -3.378000000
H    -2.187000000    -5.128000000    -4.091000000
H    -0.970000000    -4.529000000    -3.420000000
O     4.303000000     3.122000000     3.646000000
H     4.293000000     2.189000000     3.860000000
H     4.317000000     3.148000000     2.689000000
O     5.850000000    -2.552000000    -0.910000000
H     6.451000000    -1.810000000    -0.853000000
H     4.995000000    -2.155000000    -1.076000000
O     4.411000000    -4.500000000    -0.026000000
H     3.696000000    -3.865000000    -0.051000000
H     5.150000000    -4.045000000    -0.430000000
O    -3.931000000    -3.832000000    -1.353000000
H    -4.009000000    -2.878000000    -1.337000000
H    -3.034000000    -3.993000000    -1.647000000
O    -6.609000000     1.436000000     2.309000000
H    -7.251000000     0.812000000     2.649000000
H    -7.004000000     1.772000000     1.505000000
O    -5.774000000    -1.267000000     4.614000000
H    -5.775000000    -2.125000000     4.190000000
H    -4.935000000    -0.879000000     4.368000000
O     0.798000000    -4.615000000    -2.960000000
H     1.351000000    -5.380000000    -2.801000000
H     1.410000000    -3.880000000    -2.999000000
O     2.961000000    -2.917000000    -3.191000000
H     3.043000000    -2.957000000    -2.238000000
H     2.683000000    -2.019000000    -3.370000000
O    -7.428000000    -0.043000000    -0.548000000
H    -7.723000000     0.666000000     0.023000000
H    -7.655000000    -0.843000000    -0.074000000
O     4.907000000     0.276000000     4.095000000
H     4.670000000    -0.558000000     4.501000000
H     4.841000000     0.113000000     3.155000000
O    -0.292000000     6.700000000     1.095000000
H     0.190000000     7.323000000     1.638000000
H    -1.155000000     7.100000000     0.981000000
O     4.116000000     2.823000000     0.972000000
H     3.691000000     3.231000000     0.218000000
H     4.524000000     2.033000000     0.618000000
O    -1.460000000    -1.303000000    -3.746000000
H    -2.082000000    -1.382000000    -4.470000000
H    -1.713000000    -1.995000000    -3.136000000
O     2.806000000    -6.168000000    -1.521000000
H     2.338000000    -6.754000000    -0.926000000
H     3.428000000    -5.704000000    -0.960000000
O    -4.726000000    -1.351000000    -4.406000000
H    -5.647000000    -1.548000000    -4.576000000
H    -4.684000000    -1.194000000    -3.463000000
O     1.468000000     5.667000000     3.697000000
H     2.343000000     6.053000000     3.656000000
H     1.371000000     5.203000000     2.865000000
O     6.459000000    -0.116000000    -4.373000000
H     5.775000000     0.494000000    -4.097000000
H     6.522000000     0.007000000    -5.320000000
O    -1.384000000     3.088000000     4.730000000
H    -1.476000000     3.776000000     4.071000000
H    -0.607000000     2.598000000     4.459000000
O    -1.712000000     1.357000000    -2.393000000
H    -1.676000000     1.129000000    -1.464000000
H    -1.859000000     0.524000000    -2.839000000
O    -0.193000000     5.855000000    -2.083000000
H    -0.494000000     6.717000000    -1.795000000
H     0.760000000     5.893000000    -1.997000000
O     4.112000000     1.074000000    -2.877000000
H     3.500000000     0.952000000    -3.603000000
H     3.813000000     0.459000000    -2.207000000
O    -4.213000000     0.885000000     3.382000000
H    -3.897000000     1.518000000     4.027000000
H    -5.048000000     1.244000000     3.084000000
O     3.788000000    -3.202000000    -5.584000000
H     4.641000000    -2.852000000    -5.325000000
H     3.284000000    -3.230000000    -4.771000000
O     1.911000000    -1.769000000     3.145000000
H     2.268000000    -1.139000000     2.519000000
H     2.671000000    -2.066000000     3.645000000
O    -4.062000000    -4.730000000     1.330000000
H    -4.170000000    -4.433000000     0.427000000
H    -4.580000000    -5.534000000     1.381000000
O    -1.896000000    -3.697000000     3.020000000
H    -2.322000000    -2.964000000     3.465000000
H    -2.570000000    -4.048000000     2.439000000
O     4.738000000    -0.160000000     1.439000000
H     4.286000000    -0.240000000     0.599000000
H     5.378000000    -0.872000000     1.436000000
