158
-3036.16658
C    -0.059000000    -1.451000000     0.278000000
H    -0.201000000    -2.523000000     0.385000000
C    -0.861000000    -0.753000000    -0.636000000
H    -1.722000000    -1.120000000    -1.189000000
C    -0.770000000     0.574000000    -0.828000000
H    -1.476000000     1.177000000    -1.396000000
C     0.307000000     1.231000000    -0.124000000
H     0.416000000     2.309000000    -0.215000000
C     1.097000000     0.591000000     0.741000000
H     1.841000000     1.106000000     1.343000000
C     0.977000000    -0.802000000     0.995000000
C     1.850000000    -1.592000000     1.950000000
O     1.673000000    -2.789000000     2.109000000
O     2.748000000    -1.006000000     2.635000000
O     5.820000000     0.621000000    -0.999000000
H     6.341000000    -0.165000000    -1.168000000
H     5.257000000     0.381000000    -0.264000000
O    -2.746000000     2.384000000    -4.502000000
H    -2.143000000     2.448000000    -5.243000000
H    -2.956000000     3.292000000    -4.285000000
O    -6.205000000     1.042000000    -3.986000000
H    -5.400000000     1.277000000    -3.524000000
H    -6.837000000     0.864000000    -3.290000000
O    -1.496000000     5.382000000     3.223000000
H    -1.193000000     6.161000000     3.689000000
H    -0.734000000     4.802000000     3.206000000
O     5.792000000    -4.292000000     4.365000000
H     5.851000000    -4.766000000     3.535000000
H     5.742000000    -3.370000000     4.111000000
O    -0.339000000    -3.259000000     5.835000000
H     0.498000000    -2.990000000     5.456000000
H    -0.964000000    -2.605000000     5.522000000
O     0.032000000    -0.327000000    -6.137000000
H     0.140000000    -1.121000000    -5.614000000
H     0.873000000    -0.215000000    -6.580000000
O     0.228000000    -4.976000000    -2.819000000
H    -0.321000000    -5.289000000    -2.100000000
H    -0.394000000    -4.669000000    -3.478000000
O    -3.723000000     3.914000000    -0.932000000
H    -3.139000000     4.258000000    -0.256000000
H    -3.292000000     4.139000000    -1.757000000
O    -3.326000000     5.174000000    -4.323000000
H    -3.975000000     5.793000000    -3.986000000
H    -2.771000000     5.699000000    -4.899000000
O     4.075000000     2.281000000    -2.568000000
H     3.315000000     1.721000000    -2.410000000
H     4.792000000     1.847000000    -2.107000000
O     1.263000000     4.037000000     5.356000000
H     1.011000000     3.730000000     4.485000000
H     0.641000000     3.614000000     5.948000000
O    -2.447000000    -2.832000000     2.343000000
H    -1.738000000    -3.378000000     2.682000000
H    -2.495000000    -2.096000000     2.953000000
O     0.632000000    -7.826000000     3.425000000
H     1.255000000    -7.192000000     3.069000000
H     0.138000000    -7.333000000     4.079000000
O     2.439000000     3.607000000     1.072000000
H     2.399000000     3.881000000     0.156000000
H     2.894000000     4.323000000     1.516000000
O    -1.726000000     5.431000000     0.312000000
H    -1.057000000     6.081000000     0.096000000
H    -1.721000000     5.392000000     1.269000000
O    -1.609000000    -5.745000000    -0.845000000
H    -2.073000000    -4.939000000    -0.620000000
H    -1.978000000    -6.008000000    -1.687000000
O     5.346000000     4.072000000     0.962000000
H     4.570000000     3.640000000     0.604000000
H     6.066000000     3.768000000     0.409000000
O     3.393000000    -4.278000000     0.346000000
H     2.652000000    -4.704000000    -0.086000000
H     2.999000000    -3.779000000     1.062000000
O    -5.301000000     1.848000000    -0.992000000
H    -5.037000000     2.749000000    -0.806000000
H    -6.249000000     1.845000000    -0.865000000
O     2.443000000    -5.565000000     3.529000000
H     2.710000000    -5.169000000     2.700000000
H     2.246000000    -4.821000000     4.098000000
O     1.474000000    -2.418000000    -2.827000000
H     1.702000000    -2.644000000    -3.728000000
H     0.955000000    -3.162000000    -2.518000000
O     1.921000000     1.995000000    -4.651000000
H     2.152000000     1.550000000    -5.466000000
H     1.859000000     1.293000000    -4.004000000
O    -5.233000000    -1.913000000    -2.537000000
H    -5.167000000    -1.457000000    -1.698000000
H    -4.667000000    -1.414000000    -3.126000000
O     2.114000000    -3.120000000     4.787000000
H     2.182000000    -2.701000000     3.929000000
H     2.870000000    -2.793000000     5.274000000
O     4.266000000    -1.381000000     6.714000000
H     5.207000000    -1.309000000     6.553000000
H     4.122000000    -2.313000000     6.878000000
O     2.141000000     4.677000000    -3.923000000
H     2.033000000     4.936000000    -3.008000000
H     1.782000000     3.791000000    -3.965000000
O     1.164000000    -6.188000000     0.019000000
H     0.328000000    -5.792000000    -0.227000000
H     1.161000000    -7.041000000    -0.415000000
O     1.065000000     0.689000000     4.486000000
H     0.855000000     1.243000000     3.735000000
H     2.003000000     0.517000000     4.403000000
O     5.272000000    -2.108000000     2.801000000
H     4.537000000    -1.534000000     2.583000000
H     5.420000000    -2.620000000     2.006000000
O    -3.631000000    -5.986000000     1.867000000
H    -3.310000000    -5.181000000     1.459000000
H    -3.730000000    -5.761000000     2.792000000
O     5.906000000     1.771000000     3.397000000
H     6.222000000     0.966000000     3.805000000
H     5.070000000     1.946000000     3.829000000
O     5.509000000    -3.282000000    -1.137000000
H     4.813000000    -3.499000000    -0.517000000
H     5.725000000    -4.115000000    -1.556000000
O    -4.574000000    -0.736000000    -0.202000000
H    -3.884000000    -0.637000000     0.454000000
H    -4.734000000     0.154000000    -0.517000000
O     2.035000000     5.630000000    -1.075000000
H     1.165000000     5.737000000    -0.690000000
H     2.614000000     6.128000000    -0.498000000
O    -1.596000000    -1.107000000     4.638000000
H    -2.099000000    -0.293000000     4.680000000
H    -0.685000000    -0.831000000     4.744000000
O    -3.115000000    -0.613000000    -3.914000000
H    -3.109000000    -0.702000000    -4.867000000
H    -2.980000000     0.322000000    -3.760000000
O     3.668000000     2.449000000     4.523000000
H     3.652000000     2.432000000     5.480000000
H     3.212000000     3.257000000     4.290000000
O    -2.820000000    -3.333000000    -0.325000000
H    -2.647000000    -3.080000000     0.582000000
H    -3.339000000    -2.611000000    -0.680000000
O     0.468000000     3.189000000     2.930000000
H     1.190000000     3.269000000     2.306000000
H    -0.240000000     2.790000000     2.426000000
O     2.184000000     0.290000000    -2.352000000
H     1.508000000     0.370000000    -1.679000000
H     2.171000000    -0.635000000    -2.596000000
O    -2.571000000     0.050000000     1.299000000
H    -1.691000000    -0.127000000     0.965000000
H    -2.454000000     0.781000000     1.906000000
O    -0.943000000    -6.024000000     4.799000000
H    -0.809000000    -5.554000000     3.977000000
H    -1.591000000    -5.501000000     5.272000000
O    -0.339000000    -4.500000000     2.437000000
H     0.388000000    -3.894000000     2.296000000
H    -0.202000000    -5.193000000     1.792000000
O    -0.916000000     2.231000000    -6.312000000
H    -0.042000000     2.612000000    -6.223000000
H    -0.778000000     1.289000000    -6.210000000
O    -2.303000000    -3.849000000    -3.832000000
H    -2.270000000    -3.141000000    -3.188000000
H    -2.909000000    -3.535000000    -4.502000000
O     7.350000000    -0.715000000     3.954000000
H     7.961000000    -0.549000000     3.236000000
H     6.734000000    -1.356000000     3.600000000
O     4.551000000     0.585000000     1.394000000
H     3.878000000     0.277000000     2.000000000
H     5.168000000     1.065000000     1.947000000
