158
-3033.65295
C     0.370000000    -1.330000000     0.573000000
H     0.510000000    -2.356000000     0.904000000
C    -0.894000000    -0.732000000     0.637000000
H    -1.587000000    -1.281000000     1.270000000
C    -1.149000000     0.578000000     0.176000000
H    -2.140000000     1.067000000     0.296000000
C    -0.048000000     1.239000000    -0.451000000
H    -0.185000000     2.256000000    -0.808000000
C     1.229000000     0.612000000    -0.566000000
H     2.025000000     1.045000000    -1.167000000
C     1.423000000    -0.669000000    -0.065000000
C     2.765000000    -1.454000000    -0.323000000
O     2.959000000    -2.597000000     0.038000000
O     3.602000000    -0.905000000    -0.999000000
O    -5.617000000     4.952000000    -1.573000000
H    -4.889000000     4.891000000    -2.192000000
H    -5.366000000     5.656000000    -0.976000000
O    -4.304000000    -1.330000000    -1.156000000
H    -3.505000000    -1.247000000    -0.636000000
H    -4.580000000    -2.237000000    -1.027000000
O     6.831000000     0.631000000    -3.011000000
H     7.203000000     1.025000000    -3.800000000
H     6.416000000    -0.175000000    -3.318000000
O     1.468000000     1.718000000    -3.953000000
H     1.958000000     2.352000000    -3.430000000
H     0.711000000     1.495000000    -3.412000000
O    -0.249000000     0.718000000     4.239000000
H     0.571000000     1.050000000     3.873000000
H    -0.881000000     1.421000000     4.089000000
O    -1.729000000     3.074000000     3.816000000
H    -2.021000000     3.983000000     3.884000000
H    -2.534000000     2.573000000     3.682000000
O    -5.189000000     2.229000000    -0.387000000
H    -4.297000000     2.429000000    -0.669000000
H    -5.705000000     2.984000000    -0.670000000
O     2.764000000    -2.237000000     4.463000000
H     3.079000000    -1.541000000     5.040000000
H     1.916000000    -1.922000000     4.149000000
O    -0.579000000    -0.044000000    -4.772000000
H     0.236000000     0.442000000    -4.897000000
H    -0.372000000    -0.687000000    -4.094000000
O    -1.806000000    -4.878000000    -0.286000000
H    -0.949000000    -4.620000000    -0.627000000
H    -1.650000000    -5.058000000     0.641000000
O    -2.102000000     6.012000000     1.366000000
H    -2.150000000     6.858000000     1.811000000
H    -2.450000000     5.386000000     2.001000000
O     2.988000000     3.303000000    -2.383000000
H     3.639000000     3.950000000    -2.654000000
H     3.444000000     2.759000000    -1.741000000
O     2.097000000     1.930000000     2.658000000
H     2.152000000     2.533000000     1.917000000
H     2.960000000     1.519000000     2.696000000
O     3.425000000    -6.427000000     2.776000000
H     3.467000000    -6.100000000     1.877000000
H     4.040000000    -5.876000000     3.260000000
O    -5.130000000    -1.945000000    -4.258000000
H    -6.078000000    -1.958000000    -4.126000000
H    -4.766000000    -1.896000000    -3.374000000
O    -0.142000000    -2.279000000     3.764000000
H    -1.086000000    -2.403000000     3.859000000
H    -0.026000000    -1.329000000     3.738000000
O    -2.989000000     2.900000000    -1.879000000
H    -2.035000000     2.824000000    -1.902000000
H    -3.162000000     3.809000000    -2.123000000
O     2.313000000     4.090000000     0.739000000
H     1.644000000     4.297000000     0.087000000
H     2.974000000     4.773000000     0.629000000
O    -1.256000000    -5.955000000     2.545000000
H    -1.677000000    -5.338000000     3.143000000
H    -0.437000000    -5.527000000     2.296000000
O     6.494000000    -4.344000000    -1.008000000
H     6.764000000    -4.612000000    -1.886000000
H     6.774000000    -3.431000000    -0.939000000
O     3.066000000    -3.552000000    -2.504000000
H     3.836000000    -3.273000000    -3.000000000
H     3.059000000    -2.984000000    -1.734000000
O     4.328000000    -4.910000000     0.689000000
H     3.851000000    -4.095000000     0.531000000
H     5.136000000    -4.816000000     0.186000000
O    -7.327000000     0.459000000     2.421000000
H    -7.622000000    -0.219000000     1.813000000
H    -7.839000000     1.233000000     2.184000000
O    -2.675000000    -0.829000000     3.424000000
H    -3.269000000    -0.134000000     3.139000000
H    -1.821000000    -0.402000000     3.490000000
O     0.646000000    -4.171000000    -0.953000000
H     1.013000000    -4.629000000    -1.710000000
H     1.409000000    -3.925000000    -0.430000000
O     1.118000000    -4.404000000    -4.350000000
H     1.534000000    -5.182000000    -4.721000000
H     1.758000000    -4.065000000    -3.724000000
O    -6.543000000     0.115000000    -1.323000000
H    -6.471000000     0.943000000    -0.847000000
H    -5.719000000    -0.336000000    -1.143000000
O     4.179000000     0.402000000     2.146000000
H     3.754000000     0.074000000     1.354000000
H     4.338000000    -0.381000000     2.675000000
O     0.469000000     6.180000000    -0.170000000
H     1.150000000     6.517000000     0.411000000
H    -0.270000000     5.995000000     0.409000000
O     5.069000000     1.477000000    -1.399000000
H     5.725000000     1.134000000    -2.007000000
H     4.509000000     0.726000000    -1.203000000
O    -0.091000000    -1.528000000    -2.553000000
H    -0.020000000    -2.432000000    -2.247000000
H    -0.593000000    -1.083000000    -1.869000000
O     2.479000000    -6.741000000    -0.438000000
H     2.228000000    -7.263000000     0.324000000
H     3.171000000    -6.163000000    -0.115000000
O     4.222000000     2.151000000    -5.065000000
H     3.334000000     1.955000000    -4.767000000
H     4.639000000     1.294000000    -5.156000000
O     4.970000000    -4.528000000     4.337000000
H     5.911000000    -4.533000000     4.508000000
H     4.824000000    -3.733000000     3.824000000
O    -6.448000000     4.604000000     2.595000000
H    -6.918000000     3.830000000     2.285000000
H    -5.559000000     4.496000000     2.258000000
O    -4.503000000    -3.232000000     2.785000000
H    -3.829000000    -2.584000000     2.989000000
H    -4.518000000    -3.269000000     1.829000000
O    -2.691000000     5.720000000    -1.157000000
H    -2.378000000     5.695000000    -0.253000000
H    -2.980000000     6.623000000    -1.286000000
O     7.758000000    -2.333000000    -3.795000000
H     7.622000000    -2.190000000    -4.731000000
H     6.948000000    -2.031000000    -3.386000000
O     6.797000000    -1.950000000     3.011000000
H     7.718000000    -1.798000000     2.797000000
H     6.363000000    -2.027000000     2.161000000
O    -3.542000000     0.578000000    -4.723000000
H    -4.135000000     0.198000000    -4.075000000
H    -2.719000000     0.106000000    -4.602000000
O    -0.623000000     4.027000000    -2.968000000
H    -1.008000000     4.904000000    -2.983000000
H     0.316000000     4.179000000    -2.860000000
O    -5.831000000     1.521000000     4.488000000
H    -6.430000000     0.861000000     4.139000000
H    -6.359000000     2.015000000     5.116000000
O     4.629000000    -1.197000000    -3.504000000
H     3.972000000    -1.045000000    -4.183000000
H     4.141000000    -1.146000000    -2.683000000
O    -4.173000000     1.352000000     2.083000000
H    -4.638000000     1.424000000     1.250000000
H    -4.861000000     1.402000000     2.746000000
O     7.334000000     2.776000000    -0.877000000
H     6.474000000     2.462000000    -1.159000000
H     7.320000000     3.714000000    -1.068000000
O     1.050000000    -4.442000000     2.238000000
H     1.970000000    -4.451000000     2.500000000
H     0.699000000    -3.639000000     2.623000000
O    -4.476000000    -3.902000000    -0.101000000
H    -3.696000000    -4.424000000    -0.287000000
H    -5.207000000    -4.452000000    -0.384000000
O     6.379000000    -1.602000000    -0.521000000
H     5.541000000    -1.257000000    -0.832000000
H     6.919000000    -0.825000000    -0.377000000
