158
-3037.36327
C     0.153000000    -1.433000000    -0.531000000
H     0.236000000    -2.440000000    -0.933000000
C    -0.834000000    -0.455000000    -0.933000000
H    -1.506000000    -0.617000000    -1.772000000
C    -0.945000000     0.767000000    -0.266000000
H    -1.607000000     1.542000000    -0.651000000
C    -0.037000000     1.093000000     0.770000000
H    -0.060000000     2.075000000     1.237000000
C     0.954000000     0.196000000     1.145000000
H     1.645000000     0.458000000     1.943000000
C     1.068000000    -1.050000000     0.418000000
C     2.254000000    -1.906000000     0.800000000
O     2.372000000    -2.976000000     0.253000000
O     3.044000000    -1.546000000     1.660000000
O     5.140000000    -0.606000000     0.297000000
H     4.528000000    -1.214000000     0.713000000
H     4.640000000     0.204000000     0.194000000
O    -4.633000000    -0.075000000    -4.964000000
H    -4.252000000     0.378000000    -5.717000000
H    -4.355000000     0.442000000    -4.208000000
O     5.512000000    -1.559000000    -2.512000000
H     5.477000000    -1.255000000    -1.605000000
H     4.633000000    -1.893000000    -2.687000000
O    -2.885000000     3.527000000     2.149000000
H    -2.037000000     3.936000000     1.977000000
H    -2.865000000     3.318000000     3.082000000
O    -1.094000000     1.483000000     3.820000000
H    -0.319000000     2.015000000     4.000000000
H    -1.814000000     1.963000000     4.228000000
O    -0.344000000     4.547000000     2.332000000
H    -0.397000000     5.414000000     2.734000000
H     0.501000000     4.201000000     2.619000000
O     3.397000000    -3.739000000     3.165000000
H     3.134000000    -4.502000000     2.650000000
H     3.258000000    -2.995000000     2.579000000
O    -0.082000000    -2.664000000    -6.145000000
H    -0.704000000    -2.863000000    -5.445000000
H    -0.460000000    -3.072000000    -6.924000000
O     0.576000000    -4.667000000    -2.890000000
H    -0.245000000    -4.722000000    -3.379000000
H     1.253000000    -4.607000000    -3.564000000
O    -3.262000000     5.831000000    -0.177000000
H    -4.012000000     6.422000000    -0.226000000
H    -3.053000000     5.785000000     0.756000000
O    -3.512000000     3.152000000    -5.287000000
H    -3.548000000     3.939000000    -4.742000000
H    -2.833000000     3.341000000    -5.935000000
O     3.381000000     1.361000000    -1.004000000
H     3.981000000     2.070000000    -1.235000000
H     2.914000000     1.168000000    -1.818000000
O    -1.973000000    -3.304000000     2.583000000
H    -2.777000000    -3.493000000     2.099000000
H    -1.995000000    -2.358000000     2.725000000
O     2.418000000    -6.284000000     2.732000000
H     2.477000000    -6.403000000     3.680000000
H     1.487000000    -6.135000000     2.567000000
O     3.129000000     3.979000000     1.638000000
H     2.429000000     3.440000000     1.269000000
H     3.936000000     3.569000000     1.328000000
O    -1.167000000     5.935000000    -1.659000000
H    -0.503000000     6.142000000    -1.002000000
H    -1.967000000     5.791000000    -1.154000000
O    -2.536000000    -5.973000000    -1.682000000
H    -2.371000000    -5.147000000    -1.228000000
H    -2.217000000    -6.645000000    -1.080000000
O     3.534000000    -7.623000000     0.053000000
H     4.466000000    -7.815000000    -0.051000000
H     3.509000000    -6.856000000     0.626000000
O     4.732000000     1.834000000     2.279000000
H     4.497000000     1.159000000     2.916000000
H     5.548000000     1.520000000     1.887000000
O     4.444000000    -4.733000000     0.153000000
H     4.049000000    -5.054000000    -0.658000000
H     3.866000000    -4.025000000     0.437000000
O    -3.677000000     1.221000000    -2.606000000
H    -3.530000000     2.019000000    -3.115000000
H    -3.740000000     1.523000000    -1.700000000
O     1.554000000    -4.406000000     5.444000000
H     0.792000000    -3.894000000     5.714000000
H     2.152000000    -3.764000000     5.063000000
O     2.440000000    -2.190000000    -2.280000000
H     2.033000000    -2.945000000    -2.704000000
H     2.407000000    -2.394000000    -1.345000000
O     2.174000000     1.087000000    -5.556000000
H     3.087000000     1.318000000    -5.388000000
H     1.824000000     0.853000000    -4.696000000
O    -4.731000000    -1.012000000     2.912000000
H    -5.170000000    -0.379000000     3.480000000
H    -3.835000000    -0.684000000     2.835000000
O    -5.662000000    -2.881000000    -3.205000000
H    -5.919000000    -1.962000000    -3.133000000
H    -4.751000000    -2.854000000    -3.496000000
O     2.694000000    -1.129000000     6.246000000
H     3.117000000    -0.655000000     5.530000000
H     3.203000000    -1.934000000     6.335000000
O    -7.607000000     3.555000000    -1.882000000
H    -6.925000000     3.365000000    -1.238000000
H    -7.996000000     2.702000000    -2.077000000
O     7.855000000    -1.035000000    -0.167000000
H     7.151000000    -0.460000000     0.133000000
H     7.405000000    -1.819000000    -0.482000000
O    -1.793000000    -6.099000000     1.541000000
H    -1.247000000    -5.813000000     0.809000000
H    -2.076000000    -5.286000000     1.961000000
O     6.496000000    -0.843000000     4.911000000
H     6.829000000    -1.505000000     5.517000000
H     6.195000000    -0.131000000     5.475000000
O     7.221000000    -3.503000000    -0.868000000
H     7.310000000    -3.707000000    -1.799000000
H     6.379000000    -3.884000000    -0.618000000
O    -5.859000000     3.701000000     0.071000000
H    -4.963000000     3.422000000     0.260000000
H    -5.847000000     4.649000000     0.201000000
O    -4.677000000    -3.026000000     0.938000000
H    -5.592000000    -3.261000000     0.786000000
H    -4.714000000    -2.329000000     1.593000000
O    -3.087000000     5.455000000    -3.944000000
H    -3.006000000     6.200000000    -4.539000000
H    -2.660000000     5.745000000    -3.138000000
O    -1.136000000    -0.192000000     6.223000000
H    -1.850000000    -0.828000000     6.185000000
H    -0.672000000    -0.301000000     5.393000000
O     3.514000000     6.321000000     0.581000000
H     3.062000000     5.554000000     0.932000000
H     4.348000000     5.981000000     0.258000000
O    -2.163000000    -0.606000000     2.032000000
H    -1.840000000     0.161000000     2.505000000
H    -1.554000000    -0.710000000     1.301000000
O    -3.204000000    -2.615000000    -4.993000000
H    -3.665000000    -3.207000000    -5.587000000
H    -3.595000000    -1.757000000    -5.157000000
O    -6.220000000    -0.076000000    -1.621000000
H    -5.564000000     0.346000000    -1.065000000
H    -6.977000000    -0.198000000    -1.048000000
O    -2.500000000    -3.480000000    -0.583000000
H    -1.804000000    -3.236000000     0.027000000
H    -3.308000000    -3.218000000    -0.141000000
O     2.278000000     2.653000000     3.922000000
H     2.784000000     3.181000000     3.304000000
H     2.742000000     1.816000000     3.957000000
O     1.755000000     0.373000000    -2.847000000
H     0.917000000     0.558000000    -2.421000000
H     1.853000000    -0.577000000    -2.780000000
O    -4.094000000     1.298000000     0.160000000
H    -3.460000000     1.527000000     0.840000000
H    -4.180000000     0.347000000     0.224000000
O     0.292000000    -4.752000000    -0.004000000
H     1.025000000    -4.147000000     0.107000000
H     0.293000000    -4.962000000    -0.938000000
O    -1.634000000    -5.049000000    -4.428000000
H    -2.088000000    -4.984000000    -3.588000000
H    -2.021000000    -4.356000000    -4.963000000
O     6.103000000    -4.066000000     3.913000000
H     6.326000000    -3.227000000     3.509000000
H     5.151000000    -4.125000000     3.834000000
O     3.750000000    -0.293000000     3.765000000
H     3.328000000    -0.577000000     2.954000000
H     4.404000000    -0.969000000     3.943000000
