158
-3037.26435
C    -0.632000000    -0.902000000    -1.052000000
H    -1.136000000    -1.693000000    -1.602000000
C    -1.276000000    -0.275000000    -0.011000000
H    -2.320000000    -0.544000000     0.125000000
C    -0.607000000     0.595000000     0.859000000
H    -1.118000000     1.304000000     1.609000000
C     0.716000000     0.797000000     0.731000000
H     1.192000000     1.415000000     1.488000000
C     1.404000000     0.174000000    -0.273000000
H     2.486000000     0.194000000    -0.166000000
C     0.749000000    -0.741000000    -1.109000000
C     1.602000000    -1.646000000    -1.951000000
O     2.862000000    -1.714000000    -1.715000000
O     1.091000000    -2.255000000    -2.889000000
O     1.847000000     4.616000000     1.447000000
H     1.904000000     5.571000000     1.421000000
H     1.060000000     4.409000000     0.944000000
O    -5.996000000     1.821000000     0.152000000
H    -6.879000000     1.456000000     0.216000000
H    -6.042000000     2.434000000    -0.581000000
O    -1.219000000    -4.425000000     2.427000000
H    -1.351000000    -4.449000000     3.375000000
H    -0.563000000    -3.741000000     2.293000000
O     3.464000000    -0.617000000     3.012000000
H     2.850000000    -1.218000000     2.589000000
H     3.878000000    -1.140000000     3.698000000
O    -0.629000000     4.548000000    -0.302000000
H    -1.156000000     4.041000000    -0.920000000
H    -0.094000000     5.117000000    -0.855000000
O    -2.281000000     3.823000000    -2.216000000
H    -2.227000000     2.888000000    -2.413000000
H    -2.249000000     4.251000000    -3.072000000
O    -2.540000000     1.596000000     5.141000000
H    -1.695000000     2.046000000     5.164000000
H    -2.900000000     1.808000000     4.280000000
O     3.060000000    -0.480000000    -4.232000000
H     3.026000000    -1.397000000    -3.962000000
H     2.162000000    -0.166000000    -4.128000000
O     4.578000000     0.023000000    -6.569000000
H     3.990000000     0.598000000    -7.058000000
H     4.076000000    -0.231000000    -5.795000000
O     1.603000000     4.780000000     4.276000000
H     1.625000000     4.861000000     3.323000000
H     1.558000000     5.682000000     4.593000000
O    -1.572000000    -2.192000000    -6.344000000
H    -1.182000000    -1.386000000    -6.005000000
H    -1.578000000    -2.789000000    -5.595000000
O    -3.587000000    -5.184000000    -1.519000000
H    -2.648000000    -5.193000000    -1.705000000
H    -3.643000000    -5.027000000    -0.577000000
O     2.334000000    -4.120000000     0.975000000
H     1.584000000    -3.646000000     1.333000000
H     2.786000000    -4.470000000     1.743000000
O    -0.929000000    -5.731000000    -2.086000000
H    -0.879000000    -6.628000000    -2.416000000
H    -0.263000000    -5.690000000    -1.399000000
O     0.285000000    -0.313000000    -5.651000000
H    -0.201000000     0.346000000    -5.155000000
H     1.044000000     0.157000000    -5.995000000
O    -5.134000000     1.153000000    -3.536000000
H    -4.191000000     1.308000000    -3.600000000
H    -5.229000000     0.556000000    -2.794000000
O     0.547000000     2.875000000    -4.351000000
H    -0.126000000     3.554000000    -4.393000000
H     0.882000000     2.925000000    -3.456000000
O    -0.055000000     2.680000000     5.136000000
H     0.854000000     2.467000000     5.349000000
H    -0.010000000     3.551000000     4.742000000
O     2.899000000    -3.920000000    -3.693000000
H     3.299000000    -4.395000000    -2.965000000
H     2.306000000    -3.295000000    -3.275000000
O     0.826000000    -2.016000000     2.022000000
H     0.681000000    -1.446000000     2.777000000
H     0.387000000    -1.570000000     1.297000000
O    -3.041000000    -1.180000000     5.370000000
H    -2.892000000    -0.241000000     5.263000000
H    -3.927000000    -1.243000000     5.727000000
O     1.586000000    -2.400000000    -7.862000000
H     1.458000000    -1.672000000    -7.254000000
H     1.692000000    -3.167000000    -7.299000000
O    -0.626000000    -2.610000000     4.638000000
H    -1.573000000    -2.552000000     4.769000000
H    -0.361000000    -1.720000000     4.406000000
O    -3.161000000     3.418000000     0.781000000
H    -2.400000000     3.832000000     0.374000000
H    -3.498000000     2.824000000     0.110000000
O     2.658000000     1.689000000     4.579000000
H     3.267000000     1.002000000     4.309000000
H     2.956000000     2.470000000     4.113000000
O    -4.931000000    -0.605000000    -1.260000000
H    -4.818000000    -1.420000000    -0.770000000
H    -5.078000000     0.060000000    -0.588000000
O     6.378000000    -1.147000000    -5.036000000
H     5.960000000    -0.740000000    -5.794000000
H     5.943000000    -0.750000000    -4.281000000
O     5.326000000     0.858000000     1.021000000
H     4.805000000     0.691000000     1.806000000
H     6.068000000     0.258000000     1.094000000
O    -2.297000000     1.420000000    -3.880000000
H    -2.362000000     1.532000000    -4.828000000
H    -1.914000000     0.550000000    -3.767000000
O    -0.384000000    -6.106000000    -5.366000000
H    -0.100000000    -6.280000000    -4.468000000
H    -1.316000000    -5.904000000    -5.288000000
O     1.822000000     2.838000000    -1.830000000
H     2.643000000     3.039000000    -1.382000000
H     1.654000000     1.919000000    -1.622000000
O     4.539000000     2.724000000    -1.190000000
H     5.332000000     2.264000000    -1.465000000
H     4.431000000     2.486000000    -0.269000000
O     4.325000000     3.939000000     3.207000000
H     3.479000000     4.095000000     2.789000000
H     4.728000000     4.806000000     3.264000000
O     1.097000000    -5.784000000    -0.541000000
H     1.885000000    -6.307000000    -0.393000000
H     1.305000000    -4.926000000    -0.170000000
O     4.387000000    -6.537000000    -2.008000000
H     4.757000000    -7.166000000    -1.389000000
H     4.352000000    -5.714000000    -1.521000000
O     7.730000000    -1.632000000    -2.265000000
H     7.446000000    -2.541000000    -2.173000000
H     6.991000000    -1.116000000    -1.942000000
O     4.908000000    -3.578000000    -5.634000000
H     4.283000000    -3.596000000    -4.908000000
H     5.403000000    -2.770000000    -5.503000000
O     4.240000000    -3.924000000    -0.993000000
H     3.811000000    -3.171000000    -1.399000000
H     3.763000000    -4.060000000    -0.175000000
O    -3.151000000    -1.718000000    -3.491000000
H    -2.552000000    -2.464000000    -3.533000000
H    -3.490000000    -1.734000000    -2.596000000
O    -4.285000000     2.088000000     3.002000000
H    -3.772000000     2.578000000     2.359000000
H    -4.333000000     1.201000000     2.643000000
O     2.093000000    -4.835000000    -6.543000000
H     1.269000000    -5.317000000    -6.479000000
H     2.377000000    -4.725000000    -5.635000000
O     5.271000000    -0.523000000    -1.704000000
H     4.460000000    -0.806000000    -2.127000000
H     5.018000000    -0.344000000    -0.798000000
O    -4.885000000    -0.680000000     2.496000000
H    -5.812000000    -0.655000000     2.733000000
H    -4.764000000    -1.537000000     2.087000000
O     0.304000000    -0.095000000     3.952000000
H     1.209000000     0.216000000     3.980000000
H    -0.208000000     0.627000000     4.317000000
O    -1.069000000    -3.499000000    -4.007000000
H    -1.069000000    -4.371000000    -3.613000000
H    -0.370000000    -3.029000000    -3.551000000
O    -5.303000000     2.235000000     5.764000000
H    -5.389000000     2.439000000     4.832000000
H    -4.359000000     2.226000000     5.920000000
O     4.037000000     2.324000000    -4.458000000
H     4.122000000     1.385000000    -4.294000000
H     3.764000000     2.690000000    -3.617000000
O    -4.715000000    -3.003000000     0.765000000
H    -5.644000000    -3.195000000     0.886000000
H    -4.279000000    -3.849000000     0.873000000
