158
-3013.26231
C     1.468000000    -0.150000000    -0.048000000
H     2.539000000    -0.209000000     0.123000000
C     0.637000000    -0.442000000     1.074000000
H     1.128000000    -0.849000000     1.955000000
C    -0.729000000    -0.342000000     0.963000000
H    -1.425000000    -0.415000000     1.754000000
C    -1.266000000     0.144000000    -0.185000000
H    -2.335000000     0.341000000    -0.226000000
C    -0.466000000     0.480000000    -1.287000000
H    -0.868000000     0.860000000    -2.223000000
C     0.945000000     0.362000000    -1.196000000
C     1.907000000     0.745000000    -2.350000000
O     3.109000000     0.484000000    -2.291000000
O     1.479000000     1.187000000    -3.394000000
O     4.771000000     1.499000000    -4.576000000
H     5.546000000     1.971000000    -4.270000000
H     4.231000000     1.391000000    -3.793000000
O    -6.174000000     4.238000000     0.256000000
H    -7.052000000     3.915000000     0.056000000
H    -5.714000000     3.477000000     0.610000000
O     7.118000000     2.473000000    -3.501000000
H     7.484000000     1.808000000    -4.082000000
H     7.794000000     3.149000000    -3.453000000
O     1.164000000     1.597000000    -7.266000000
H     0.505000000     1.031000000    -7.667000000
H     0.710000000     2.426000000    -7.117000000
O    -0.194000000    -0.497000000     4.983000000
H     0.515000000    -0.970000000     5.419000000
H     0.188000000     0.352000000     4.758000000
O    -2.827000000     3.184000000     1.890000000
H    -2.431000000     2.704000000     2.618000000
H    -3.466000000     3.764000000     2.305000000
O    -5.511000000     3.373000000    -3.367000000
H    -4.824000000     3.106000000    -2.757000000
H    -5.210000000     4.213000000    -3.714000000
O     4.770000000    -3.673000000    -2.737000000
H     5.701000000    -3.886000000    -2.805000000
H     4.350000000    -4.224000000    -3.397000000
O     0.826000000     6.138000000    -4.989000000
H     1.290000000     5.302000000    -5.007000000
H     0.499000000     6.211000000    -4.092000000
O    -6.186000000     2.623000000     4.357000000
H    -5.688000000     3.134000000     3.719000000
H    -5.899000000     1.721000000     4.218000000
O    -0.455000000     0.716000000    -5.189000000
H     0.203000000     0.850000000    -5.871000000
H     0.036000000     0.766000000    -4.369000000
O     2.210000000     1.979000000     2.989000000
H     2.808000000     1.232000000     2.979000000
H     1.910000000     2.035000000     3.896000000
O     2.746000000     4.454000000     2.023000000
H     3.641000000     4.675000000     2.281000000
H     2.608000000     3.572000000     2.368000000
O     7.125000000    -0.797000000    -3.306000000
H     6.696000000    -0.094000000    -2.817000000
H     6.706000000    -0.778000000    -4.167000000
O     1.682000000    -1.911000000     6.157000000
H     2.581000000    -2.152000000     5.933000000
H     1.776000000    -1.195000000     6.785000000
O    -1.491000000     2.721000000     4.241000000
H    -0.980000000     3.438000000     4.615000000
H    -0.878000000     1.988000000     4.194000000
O     6.791000000    -1.211000000     2.142000000
H     7.223000000    -1.746000000     1.476000000
H     6.395000000    -0.491000000     1.651000000
O    -2.062000000     5.802000000     1.141000000
H    -1.174000000     5.821000000     0.785000000
H    -2.204000000     4.886000000     1.381000000
O    -1.998000000    -1.153000000    -6.143000000
H    -1.461000000    -1.028000000    -5.360000000
H    -1.538000000    -0.668000000    -6.828000000
O     4.693000000     4.601000000    -4.470000000
H     5.092000000     4.481000000    -5.332000000
H     5.332000000     4.237000000    -3.857000000
O    -4.872000000     0.289000000     3.279000000
H    -4.216000000    -0.102000000     3.856000000
H    -5.651000000    -0.255000000     3.398000000
O     1.431000000     1.850000000     5.483000000
H     1.587000000     2.761000000     5.734000000
H     2.043000000     1.346000000     6.020000000
O    -5.322000000    -3.729000000     2.563000000
H    -4.656000000    -4.061000000     3.165000000
H    -4.824000000    -3.367000000     1.831000000
O    -3.282000000     0.804000000    -4.229000000
H    -3.224000000    -0.006000000    -3.723000000
H    -2.520000000     0.780000000    -4.808000000
O     5.983000000     4.174000000     0.312000000
H     5.702000000     4.244000000     1.224000000
H     5.185000000     3.952000000    -0.168000000
O    -3.322000000     3.272000000    -0.899000000
H    -3.578000000     4.151000000    -0.622000000
H    -3.340000000     2.752000000    -0.095000000
O    -1.485000000     4.347000000    -2.783000000
H    -2.243000000     3.864000000    -2.453000000
H    -0.764000000     4.080000000    -2.212000000
O    -0.701000000    -2.418000000    -3.992000000
H    -1.332000000    -3.091000000    -4.248000000
H     0.099000000    -2.648000000    -4.465000000
O    -3.156000000    -0.233000000     5.167000000
H    -3.243000000    -0.203000000     6.120000000
H    -2.225000000    -0.393000000     5.016000000
O    -2.992000000    -1.566000000    -3.009000000
H    -2.106000000    -1.684000000    -3.351000000
H    -2.958000000    -1.928000000    -2.124000000
O     0.875000000    -3.258000000    -0.386000000
H     1.448000000    -3.498000000    -1.114000000
H     0.672000000    -2.334000000    -0.537000000
O    -3.949000000    -3.964000000    -0.912000000
H    -4.217000000    -4.618000000    -0.266000000
H    -4.025000000    -4.413000000    -1.753000000
O     1.081000000    -3.232000000     2.218000000
H     0.838000000    -3.072000000     1.306000000
H     2.036000000    -3.178000000     2.224000000
O     0.854000000    -4.868000000     4.579000000
H     0.153000000    -4.275000000     4.846000000
H     1.052000000    -4.615000000     3.677000000
O     1.700000000    -2.854000000    -5.540000000
H     2.040000000    -1.987000000    -5.319000000
H     1.724000000    -2.884000000    -6.496000000
O     3.689000000    -0.290000000     3.307000000
H     3.990000000    -0.626000000     4.151000000
H     3.500000000    -1.074000000     2.791000000
O    -5.305000000     1.823000000     0.947000000
H    -4.952000000     1.350000000     1.700000000
H    -5.562000000     1.137000000     0.332000000
O    -3.379000000     2.471000000     6.483000000
H    -3.082000000     1.702000000     6.970000000
H    -2.986000000     2.372000000     5.616000000
O     1.760000000     3.657000000    -4.498000000
H     1.575000000     2.828000000    -4.057000000
H     2.715000000     3.719000000    -4.502000000
O    -3.292000000    -4.020000000     4.371000000
H    -3.486000000    -3.670000000     5.241000000
H    -2.683000000    -3.388000000     3.990000000
O     0.651000000     2.909000000     0.477000000
H     1.122000000     2.599000000     1.250000000
H     0.226000000     2.127000000     0.125000000
O     5.608000000     0.327000000     0.458000000
H     5.297000000     1.016000000    -0.129000000
H     5.374000000    -0.488000000     0.015000000
O     3.233000000    -0.840000000    -4.736000000
H     3.923000000    -0.403000000    -5.234000000
H     3.093000000    -0.277000000    -3.975000000
O     3.928000000     2.481000000    -7.089000000
H     4.202000000     2.199000000    -6.216000000
H     2.976000000     2.381000000    -7.085000000
O     4.429000000    -1.599000000    -1.080000000
H     4.565000000    -2.304000000    -1.712000000
H     3.817000000    -1.003000000    -1.512000000
O     4.060000000    -2.551000000     2.042000000
H     4.332000000    -2.171000000     1.206000000
H     4.508000000    -3.397000000     2.077000000
O     3.647000000     3.185000000    -0.670000000
H     3.424000000     3.047000000    -1.591000000
H     2.860000000     3.575000000    -0.289000000
O    -1.131000000    -2.680000000     3.776000000
H    -0.470000000    -2.778000000     3.090000000
H    -0.965000000    -1.813000000     4.146000000
