158
-3060.03619
C     1.103000000    -0.989000000    -0.057000000
H     1.784000000    -1.823000000    -0.204000000
C    -0.243000000    -1.284000000     0.339000000
H    -0.558000000    -2.313000000     0.493000000
C    -1.152000000    -0.261000000     0.376000000
H    -2.223000000    -0.452000000     0.610000000
C    -0.760000000     1.041000000     0.067000000
H    -1.512000000     1.822000000    -0.013000000
C     0.525000000     1.333000000    -0.303000000
H     0.839000000     2.355000000    -0.499000000
C     1.533000000     0.299000000    -0.312000000
C     2.957000000     0.631000000    -0.658000000
O     3.792000000    -0.207000000    -0.992000000
O     3.201000000     1.792000000    -0.685000000
O     5.840000000     2.345000000    -0.095000000
H     4.921000000     2.116000000    -0.234000000
H     6.192000000     2.470000000    -0.977000000
O    -0.150000000    -3.579000000    -4.848000000
H    -0.020000000    -2.875000000    -4.213000000
H    -0.510000000    -4.302000000    -4.334000000
O    -3.257000000     3.408000000    -2.469000000
H    -3.118000000     2.478000000    -2.650000000
H    -3.195000000     3.479000000    -1.517000000
O     7.240000000     4.775000000     0.804000000
H     6.552000000     4.239000000     0.409000000
H     8.042000000     4.269000000     0.673000000
O     1.609000000     0.263000000    -3.397000000
H     1.056000000     0.851000000    -3.911000000
H     2.440000000     0.730000000    -3.309000000
O     1.633000000    -5.606000000     2.145000000
H     1.835000000    -5.676000000     3.078000000
H     0.894000000    -4.999000000     2.104000000
O     1.274000000     5.910000000     1.222000000
H     0.367000000     5.604000000     1.219000000
H     1.796000000     5.112000000     1.142000000
O    -4.009000000    -4.083000000     1.924000000
H    -3.226000000    -4.566000000     2.186000000
H    -3.758000000    -3.162000000     2.000000000
O    -0.456000000     4.120000000    -3.169000000
H    -1.412000000     4.083000000    -3.198000000
H    -0.255000000     4.431000000    -2.287000000
O     7.645000000     0.433000000    -4.313000000
H     7.073000000     0.051000000    -4.979000000
H     7.163000000     0.324000000    -3.493000000
O     3.968000000    -4.948000000     0.833000000
H     3.220000000    -5.182000000     1.382000000
H     3.936000000    -3.993000000     0.779000000
O    -3.793000000     3.709000000     0.143000000
H    -3.817000000     2.755000000     0.223000000
H    -4.709000000     3.978000000     0.210000000
O     6.397000000    -0.555000000    -1.996000000
H     5.506000000    -0.205000000    -1.990000000
H     6.708000000    -0.433000000    -1.099000000
O     2.640000000     2.882000000     4.006000000
H     2.404000000     2.999000000     4.927000000
H     2.065000000     2.181000000     3.699000000
O    -6.347000000     1.560000000     2.301000000
H    -6.263000000     0.718000000     1.854000000
H    -7.017000000     2.029000000     1.805000000
O    -5.760000000    -5.403000000    -0.154000000
H    -5.072000000    -4.961000000     0.343000000
H    -6.429000000    -4.732000000    -0.288000000
O     2.805000000    -2.650000000     4.990000000
H     2.732000000    -2.533000000     4.043000000
H     3.741000000    -2.772000000     5.145000000
O    -1.522000000     2.559000000     4.009000000
H    -1.301000000     3.438000000     3.701000000
H    -2.298000000     2.685000000     4.555000000
O    -1.261000000    -3.453000000     3.908000000
H    -1.234000000    -2.497000000     3.958000000
H    -1.500000000    -3.732000000     4.791000000
O    -4.701000000    -1.482000000     4.833000000
H    -5.637000000    -1.288000000     4.895000000
H    -4.490000000    -1.345000000     3.909000000
O    -1.597000000    -5.672000000     2.481000000
H    -1.240000000    -4.888000000     2.898000000
H    -1.907000000    -6.210000000     3.209000000
O    -4.510000000     1.019000000    -0.156000000
H    -5.466000000     0.993000000    -0.114000000
H    -4.283000000     0.389000000    -0.841000000
O     3.576000000    -2.737000000    -2.474000000
H     3.969000000    -2.990000000    -1.639000000
H     3.442000000    -1.792000000    -2.400000000
O    -6.359000000    -2.635000000    -1.511000000
H    -6.642000000    -2.841000000    -2.401000000
H    -5.410000000    -2.529000000    -1.580000000
O     3.016000000    -1.728000000     2.439000000
H     3.887000000    -1.458000000     2.147000000
H     2.580000000    -0.911000000     2.680000000
O     3.355000000     5.869000000    -1.078000000
H     2.945000000     6.114000000    -0.249000000
H     3.658000000     6.697000000    -1.450000000
O    -3.020000000    -4.740000000    -1.048000000
H    -2.484000000    -5.357000000    -0.550000000
H    -3.483000000    -5.285000000    -1.684000000
O    -2.913000000     0.752000000    -2.416000000
H    -2.211000000     0.464000000    -1.834000000
H    -2.680000000     0.391000000    -3.271000000
O    -1.720000000    -0.377000000     4.098000000
H    -1.466000000     0.543000000     4.175000000
H    -2.653000000    -0.386000000     4.312000000
O     6.987000000     2.917000000    -2.536000000
H     7.294000000     2.299000000    -3.199000000
H     6.998000000     3.767000000    -2.976000000
O     0.033000000     2.118000000    -4.736000000
H     0.521000000     2.752000000    -5.262000000
H    -0.105000000     2.558000000    -3.898000000
O    -1.022000000    -6.507000000    -0.261000000
H    -1.017000000    -7.443000000    -0.461000000
H    -0.933000000    -6.465000000     0.691000000
O     6.874000000    -3.398000000    -2.214000000
H     7.141000000    -3.035000000    -1.369000000
H     6.459000000    -2.665000000    -2.669000000
O     0.711000000     1.025000000     3.289000000
H    -0.084000000     1.522000000     3.484000000
H     0.421000000     0.335000000     2.692000000
O     3.336000000    -4.903000000    -3.989000000
H     2.743000000    -5.290000000    -3.344000000
H     3.416000000    -3.987000000    -3.722000000
O    -3.776000000    -2.127000000    -1.160000000
H    -3.420000000    -1.832000000    -1.998000000
H    -3.347000000    -2.968000000    -1.001000000
O    -1.203000000     4.955000000     0.179000000
H    -2.153000000     4.853000000     0.240000000
H    -1.080000000     5.828000000    -0.195000000
O    -4.407000000    -1.026000000     2.239000000
H    -3.851000000    -0.319000000     1.913000000
H    -5.064000000    -1.149000000     1.553000000
O     3.240000000     3.571000000    -2.799000000
H     3.086000000     2.863000000    -2.174000000
H     3.396000000     4.342000000    -2.254000000
O    -6.820000000    -3.607000000     2.629000000
H    -7.346000000    -4.336000000     2.301000000
H    -5.963000000    -3.726000000     2.219000000
O    -1.864000000     4.896000000     2.932000000
H    -2.806000000     4.858000000     2.764000000
H    -1.462000000     4.697000000     2.086000000
O     5.212000000     4.828000000    -4.503000000
H     5.589000000     4.209000000    -5.128000000
H     4.677000000     4.287000000    -3.922000000
O     5.285000000    -2.239000000     0.579000000
H     6.202000000    -2.163000000     0.317000000
H     4.824000000    -1.607000000     0.029000000
O    -3.349000000    -1.583000000    -4.077000000
H    -3.255000000    -0.935000000    -4.776000000
H    -2.628000000    -2.196000000    -4.221000000
O    -0.222000000    -1.697000000    -2.971000000
H     0.568000000    -1.157000000    -2.960000000
H    -0.448000000    -1.811000000    -2.048000000
O     2.696000000     3.626000000     1.237000000
H     2.710000000     3.255000000     2.120000000
H     2.896000000     2.886000000     0.664000000
O    -6.885000000    -0.481000000     0.202000000
H    -6.826000000    -1.277000000    -0.326000000
H    -7.627000000    -0.003000000    -0.168000000
O     6.186000000     0.842000000     2.113000000
H     6.427000000     1.549000000     2.711000000
H     6.059000000     1.274000000     1.269000000
