158
-3035.43255
C     0.839000000    -1.172000000    -0.263000000
H     1.458000000    -2.009000000    -0.575000000
C    -0.507000000    -1.041000000    -0.610000000
H    -1.018000000    -1.858000000    -1.113000000
C    -1.179000000     0.126000000    -0.310000000
H    -2.224000000     0.222000000    -0.547000000
C    -0.538000000     1.123000000     0.402000000
H    -1.093000000     2.048000000     0.533000000
C     0.772000000     0.967000000     0.845000000
H     1.313000000     1.716000000     1.417000000
C     1.536000000    -0.161000000     0.416000000
C     2.986000000    -0.252000000     0.696000000
O     3.612000000    -0.997000000    -0.033000000
O     3.534000000     0.345000000     1.572000000
O     3.768000000     2.712000000     2.867000000
H     3.961000000     1.998000000     2.259000000
H     3.863000000     2.320000000     3.735000000
O     3.121000000    -2.556000000    -4.723000000
H     3.655000000    -3.328000000    -4.911000000
H     2.452000000    -2.870000000    -4.115000000
O    -3.174000000    -2.502000000    -0.562000000
H    -2.669000000    -2.010000000     0.085000000
H    -4.088000000    -2.347000000    -0.321000000
O     1.154000000     1.537000000    -2.540000000
H     0.693000000     1.448000000    -1.706000000
H     1.038000000     2.457000000    -2.781000000
O    -7.437000000    -0.306000000    -0.754000000
H    -7.013000000    -1.163000000    -0.695000000
H    -7.477000000    -0.123000000    -1.692000000
O    -1.526000000    -0.842000000     3.047000000
H    -0.635000000    -0.614000000     2.782000000
H    -1.441000000    -1.121000000     3.958000000
O    -1.121000000     5.706000000     0.822000000
H    -1.867000000     5.194000000     1.134000000
H    -1.371000000     5.979000000    -0.061000000
O     6.138000000    -1.375000000     0.745000000
H     5.314000000    -0.999000000     0.437000000
H     6.012000000    -2.321000000     0.671000000
O    -4.203000000    -3.695000000     2.606000000
H    -4.788000000    -4.419000000     2.380000000
H    -3.349000000    -3.962000000     2.266000000
O     6.268000000    -1.700000000    -2.378000000
H     5.540000000    -1.140000000    -2.110000000
H     6.636000000    -1.264000000    -3.147000000
O     1.517000000    -3.575000000    -2.807000000
H     0.709000000    -3.119000000    -2.571000000
H     1.373000000    -4.478000000    -2.525000000
O    -4.927000000     3.414000000    -0.263000000
H    -5.646000000     3.797000000     0.240000000
H    -4.525000000     2.784000000     0.335000000
O     5.149000000     1.688000000    -0.247000000
H     4.719000000     1.589000000    -1.096000000
H     4.510000000     1.359000000     0.385000000
O     1.585000000     3.851000000     4.164000000
H     1.016000000     3.113000000     3.948000000
H     2.409000000     3.659000000     3.715000000
O    -3.334000000    -0.352000000    -5.655000000
H    -2.997000000     0.235000000    -4.979000000
H    -4.272000000    -0.411000000    -5.474000000
O    -6.111000000    -2.913000000    -0.310000000
H    -6.462000000    -3.011000000     0.575000000
H    -6.035000000    -3.809000000    -0.638000000
O     0.179000000     1.603000000     3.902000000
H     0.491000000     0.722000000     3.695000000
H    -0.580000000     1.462000000     4.468000000
O     4.355000000     5.318000000     2.744000000
H     4.259000000     4.409000000     3.026000000
H     4.073000000     5.316000000     1.829000000
O    -1.088000000    -4.416000000    -1.552000000
H    -1.828000000    -3.941000000    -1.174000000
H    -0.642000000    -4.804000000    -0.798000000
O     3.689000000    -3.350000000    -1.013000000
H     3.350000000    -3.378000000    -1.907000000
H     3.504000000    -2.459000000    -0.714000000
O     8.061000000     0.446000000    -0.722000000
H     8.210000000     0.659000000     0.199000000
H     7.722000000    -0.449000000    -0.709000000
O     7.066000000     2.010000000     1.793000000
H     7.484000000     2.853000000     1.616000000
H     6.517000000     1.849000000     1.025000000
O    -4.012000000    -2.489000000    -3.464000000
H    -3.483000000    -1.955000000    -4.057000000
H    -3.663000000    -2.298000000    -2.594000000
O     3.870000000     0.368000000    -2.618000000
H     2.949000000     0.613000000    -2.705000000
H     3.870000000    -0.340000000    -1.974000000
O    -7.133000000     0.615000000     1.741000000
H    -7.949000000     1.114000000     1.712000000
H    -6.909000000     0.467000000     0.822000000
O    -5.551000000     1.355000000     3.937000000
H    -6.087000000     1.051000000     3.204000000
H    -5.995000000     2.144000000     4.247000000
O     8.307000000    -0.774000000     2.436000000
H     7.744000000    -0.882000000     1.670000000
H     7.859000000    -1.252000000     3.133000000
O     3.663000000     1.753000000     5.539000000
H     3.952000000     1.274000000     6.316000000
H     2.821000000     2.132000000     5.791000000
O     4.254000000    -2.535000000     5.857000000
H     4.462000000    -2.033000000     5.069000000
H     4.185000000    -3.440000000     5.552000000
O    -5.113000000     2.657000000    -2.821000000
H    -5.988000000     2.282000000    -2.916000000
H    -5.038000000     2.855000000    -1.887000000
O     1.183000000    -0.865000000     3.444000000
H     1.131000000    -1.549000000     4.111000000
H     2.058000000    -0.963000000     3.068000000
O     0.205000000     0.108000000    -4.906000000
H     0.135000000     0.888000000    -5.456000000
H     0.293000000     0.449000000    -4.016000000
O     7.920000000    -3.678000000    -0.962000000
H     7.316000000    -3.035000000    -1.334000000
H     7.446000000    -4.051000000    -0.220000000
O    -3.232000000     5.295000000    -0.909000000
H    -3.592000000     6.057000000    -0.456000000
H    -3.919000000     4.632000000    -0.845000000
O    -1.621000000    -4.968000000    -4.305000000
H    -2.211000000    -4.267000000    -4.582000000
H    -1.512000000    -4.832000000    -3.364000000
O    -1.498000000    -4.363000000     2.476000000
H    -0.919000000    -3.747000000     2.924000000
H    -0.951000000    -4.751000000     1.793000000
O     4.167000000    -6.277000000    -1.253000000
H     4.382000000    -6.711000000    -0.427000000
H     4.114000000    -5.348000000    -1.029000000
O    -3.936000000    -1.020000000     1.984000000
H    -3.056000000    -1.032000000     2.360000000
H    -4.361000000    -1.798000000     2.345000000
O     4.437000000     4.351000000    -0.428000000
H     4.652000000     3.464000000    -0.140000000
H     5.249000000     4.680000000    -0.813000000
O     2.085000000     5.575000000     0.078000000
H     2.877000000     5.106000000    -0.186000000
H     1.367000000     5.013000000    -0.212000000
O     0.318000000     4.530000000    -1.908000000
H    -0.543000000     4.570000000    -1.493000000
H     0.482000000     5.425000000    -2.206000000
O    -1.863000000     3.572000000     2.702000000
H    -1.006000000     3.207000000     2.922000000
H    -2.315000000     2.863000000     2.246000000
O     2.805000000    -4.268000000     1.806000000
H     3.189000000    -3.935000000     0.995000000
H     3.504000000    -4.185000000     2.454000000
O    -2.707000000     0.763000000    -3.021000000
H    -2.117000000     1.109000000    -2.352000000
H    -3.466000000     1.347000000    -2.996000000
O    -3.756000000     1.966000000     1.794000000
H    -3.658000000     1.033000000     1.604000000
H    -4.231000000     1.993000000     2.625000000
O     7.639000000     1.223000000     4.343000000
H     7.936000000     0.313000000     4.314000000
H     7.291000000     1.389000000     3.467000000
O     0.408000000    -5.118000000     0.638000000
H     0.851000000    -5.569000000    -0.080000000
H     1.118000000    -4.802000000     1.197000000
O     4.448000000    -1.081000000     3.646000000
H     3.942000000    -0.543000000     3.037000000
H     5.323000000    -1.120000000     3.260000000
