158
-2977.85068
C     1.074000000    -0.878000000    -0.461000000
H     1.781000000    -1.652000000    -0.747000000
C    -0.163000000    -1.333000000     0.056000000
H    -0.489000000    -2.359000000     0.202000000
C    -1.077000000    -0.336000000     0.398000000
H    -2.112000000    -0.567000000     0.762000000
C    -0.777000000     1.005000000     0.261000000
H    -1.554000000     1.702000000     0.565000000
C     0.468000000     1.466000000    -0.151000000
H     0.709000000     2.512000000    -0.323000000
C     1.422000000     0.468000000    -0.551000000
C     2.789000000     0.787000000    -1.007000000
O     3.527000000    -0.161000000    -1.326000000
O     3.186000000     1.871000000    -1.038000000
O     4.876000000     3.709000000    -0.211000000
H     4.403000000     2.954000000    -0.563000000
H     5.061000000     4.253000000    -0.977000000
O     2.058000000    -2.804000000    -5.538000000
H     1.431000000    -2.082000000    -5.501000000
H     2.485000000    -2.795000000    -4.682000000
O    -4.980000000    -1.382000000    -3.031000000
H    -4.107000000    -0.996000000    -3.099000000
H    -4.872000000    -2.116000000    -2.426000000
O     6.522000000     3.498000000     1.976000000
H     5.875000000     3.278000000     1.306000000
H     7.363000000     3.267000000     1.583000000
O    -4.205000000    -1.107000000     6.904000000
H    -3.545000000    -1.383000000     6.268000000
H    -5.030000000    -1.126000000     6.417000000
O    -0.176000000     2.009000000    -4.892000000
H    -0.961000000     2.104000000    -4.354000000
H     0.447000000     2.634000000    -4.521000000
O     1.148000000    -5.366000000     2.717000000
H     0.967000000    -5.575000000     3.634000000
H     0.297000000    -5.435000000     2.284000000
O    -0.619000000     5.418000000     0.706000000
H    -1.491000000     5.177000000     1.019000000
H    -0.647000000     5.249000000    -0.236000000
O     6.485000000    -3.608000000     0.614000000
H     5.731000000    -3.019000000     0.593000000
H     6.210000000    -4.330000000     1.179000000
O     7.321000000     0.367000000     1.912000000
H     7.664000000     1.224000000     1.659000000
H     6.422000000     0.541000000     2.190000000
O    -4.858000000    -4.261000000     1.350000000
H    -4.981000000    -4.694000000     2.194000000
H    -4.701000000    -4.976000000     0.734000000
O     5.477000000    -1.391000000    -5.446000000
H     4.595000000    -1.442000000    -5.817000000
H     5.383000000    -0.821000000    -4.683000000
O     2.961000000    -5.445000000     0.770000000
H     2.260000000    -5.570000000     1.410000000
H     2.813000000    -4.566000000     0.421000000
O    -3.363000000     5.492000000     1.206000000
H    -3.549000000     6.317000000     0.757000000
H    -4.224000000     5.111000000     1.374000000
O     5.134000000     0.221000000    -3.210000000
H     4.565000000    -0.042000000    -2.487000000
H     4.823000000     1.092000000    -3.455000000
O     4.337000000     5.955000000     1.543000000
H     4.442000000     5.169000000     1.006000000
H     3.442000000     5.897000000     1.879000000
O    -0.785000000     1.564000000     4.298000000
H    -1.293000000     2.349000000     4.099000000
H    -0.297000000     1.789000000     5.091000000
O    -2.105000000    -3.545000000     3.118000000
H    -1.483000000    -3.415000000     3.834000000
H    -2.429000000    -2.666000000     2.920000000
O    -1.347000000    -5.885000000     1.970000000
H    -1.930000000    -5.194000000     2.286000000
H    -1.884000000    -6.677000000     1.985000000
O    -1.313000000    -3.207000000    -2.995000000
H    -1.482000000    -2.299000000    -2.745000000
H    -1.366000000    -3.696000000    -2.173000000
O     3.236000000     0.051000000    -6.551000000
H     2.379000000    -0.375000000    -6.508000000
H     3.215000000     0.701000000    -5.848000000
O     1.768000000     5.048000000     2.348000000
H     1.494000000     4.131000000     2.380000000
H     0.998000000     5.517000000     2.028000000
O    -4.769000000     0.136000000    -0.454000000
H    -4.631000000    -0.648000000    -0.986000000
H    -4.260000000     0.816000000    -0.894000000
O     3.310000000    -2.635000000    -3.190000000
H     3.852000000    -3.206000000    -2.645000000
H     3.357000000    -1.780000000    -2.763000000
O     2.659000000    -2.963000000     3.138000000
H     1.838000000    -2.479000000     3.232000000
H     2.388000000    -3.869000000     2.989000000
O     0.751000000     6.545000000    -2.335000000
H     0.058000000     7.165000000    -2.107000000
H     1.273000000     6.465000000    -1.537000000
O    -3.574000000     2.902000000    -0.480000000
H    -4.431000000     3.327000000    -0.534000000
H    -3.020000000     3.404000000    -1.077000000
O    -4.452000000    -0.020000000     3.929000000
H    -4.257000000     0.628000000     3.252000000
H    -5.270000000    -0.426000000     3.643000000
O     5.780000000     5.024000000    -2.438000000
H     5.704000000     4.789000000    -3.363000000
H     6.608000000     5.500000000    -2.379000000
O    -2.193000000     2.717000000    -3.060000000
H    -2.215000000     3.674000000    -3.025000000
H    -3.012000000     2.475000000    -3.493000000
O    -1.822000000    -4.912000000    -1.003000000
H    -1.798000000    -5.817000000    -1.315000000
H    -1.788000000    -4.987000000    -0.049000000
O     4.697000000    -4.279000000    -1.723000000
H     5.055000000    -4.426000000    -0.847000000
H     5.349000000    -4.654000000    -2.314000000
O     1.229000000    -0.203000000     2.842000000
H     0.699000000     0.375000000     3.390000000
H     0.745000000    -0.262000000     2.018000000
O    -4.575000000     2.175000000     5.883000000
H    -5.337000000     2.074000000     6.453000000
H    -4.469000000     1.317000000     5.471000000
O     0.541000000    -5.006000000    -4.711000000
H     0.093000000    -4.609000000    -3.964000000
H     1.151000000    -4.332000000    -5.010000000
O     7.145000000     1.817000000    -2.009000000
H     6.493000000     1.145000000    -2.210000000
H     6.723000000     2.641000000    -2.252000000
O    -4.124000000    -2.991000000    -1.090000000
H    -3.364000000    -3.572000000    -1.092000000
H    -4.666000000    -3.308000000    -0.368000000
O    -2.138000000    -0.800000000     4.984000000
H    -3.019000000    -0.731000000     4.616000000
H    -1.659000000    -0.065000000     4.601000000
O    -6.069000000    -1.728000000     1.400000000
H    -5.509000000    -1.274000000     0.771000000
H    -5.612000000    -2.550000000     1.578000000
O     1.788000000     3.681000000    -3.303000000
H     2.270000000     3.167000000    -2.655000000
H     1.514000000     4.466000000    -2.830000000
O     3.547000000     2.125000000    -4.740000000
H     2.946000000     2.674000000    -4.237000000
H     4.114000000     2.746000000    -5.198000000
O    -2.390000000     4.576000000     3.670000000
H    -2.827000000     5.130000000     4.317000000
H    -2.708000000     4.898000000     2.826000000
O     3.267000000     6.477000000    -3.486000000
H     3.557000000     5.784000000    -2.892000000
H     2.396000000     6.716000000    -3.168000000
O     4.243000000    -1.848000000     0.753000000
H     3.630000000    -1.647000000     1.460000000
H     3.954000000    -1.302000000     0.022000000
O    -1.915000000    -0.450000000    -2.732000000
H    -2.185000000     0.176000000    -3.404000000
H    -1.399000000     0.068000000    -2.115000000
O    -4.709000000     1.857000000     2.065000000
H    -5.112000000     2.724000000     2.032000000
H    -4.708000000     1.558000000     1.155000000
O    -7.476000000     0.966000000     0.125000000
H    -6.660000000     0.542000000    -0.139000000
H    -8.148000000     0.548000000    -0.415000000
O     4.667000000     1.152000000     2.046000000
H     3.793000000     1.051000000     2.423000000
H     4.564000000     0.887000000     1.131000000
