158
-3030.75921
C     0.415000000    -0.745000000     1.219000000
H     0.523000000    -1.347000000     2.118000000
C    -0.852000000    -0.411000000     0.802000000
H    -1.702000000    -0.706000000     1.412000000
C    -1.136000000     0.246000000    -0.404000000
H    -2.161000000     0.452000000    -0.632000000
C    -0.084000000     0.742000000    -1.118000000
H    -0.315000000     1.282000000    -2.033000000
C     1.221000000     0.379000000    -0.793000000
H     2.060000000     0.789000000    -1.349000000
C     1.471000000    -0.403000000     0.363000000
C     2.881000000    -0.729000000     0.709000000
O     3.847000000    -0.415000000     0.003000000
O     3.142000000    -1.468000000     1.628000000
O     4.404000000     2.236000000     0.039000000
H     3.795000000     2.461000000     0.742000000
H     4.168000000     1.341000000    -0.204000000
O    -6.585000000     3.782000000    -1.471000000
H    -5.802000000     4.027000000    -1.964000000
H    -7.303000000     3.884000000    -2.095000000
O     3.266000000    -1.014000000    -2.792000000
H     3.469000000    -0.153000000    -3.158000000
H     3.552000000    -0.960000000    -1.880000000
O    -5.202000000    -0.404000000    -5.040000000
H    -4.665000000     0.329000000    -4.740000000
H    -4.894000000    -0.579000000    -5.930000000
O    -1.160000000    -0.435000000    -4.080000000
H    -1.300000000    -0.617000000    -5.009000000
H    -0.556000000     0.308000000    -4.070000000
O     1.944000000     4.715000000    -0.925000000
H     2.521000000     5.469000000    -0.804000000
H     2.385000000     4.180000000    -1.586000000
O    -5.350000000     0.820000000    -1.670000000
H    -5.768000000     1.612000000    -1.331000000
H    -5.889000000     0.103000000    -1.337000000
O     5.981000000    -5.011000000     0.209000000
H     6.814000000    -4.601000000    -0.025000000
H     5.332000000    -4.557000000    -0.329000000
O     1.522000000     1.357000000     5.494000000
H     2.270000000     1.448000000     6.085000000
H     1.607000000     0.474000000     5.135000000
O     1.717000000     2.925000000     1.370000000
H     1.748000000     3.630000000     0.724000000
H     0.868000000     2.506000000     1.227000000
O    -3.377000000     1.194000000    -3.831000000
H    -2.776000000     0.463000000    -3.690000000
H    -3.878000000     1.254000000    -3.017000000
O     6.333000000    -1.764000000     4.624000000
H     6.325000000    -1.909000000     3.678000000
H     6.506000000    -0.828000000     4.721000000
O     6.498000000    -0.340000000    -3.036000000
H     6.479000000    -1.127000000    -3.579000000
H     6.230000000     0.365000000    -3.625000000
O     0.789000000     1.498000000    -4.504000000
H     1.478000000     1.347000000    -3.858000000
H     1.256000000     1.600000000    -5.333000000
O    -0.939000000    -2.942000000     4.796000000
H    -0.174000000    -2.429000000     4.538000000
H    -0.849000000    -3.765000000     4.316000000
O    -3.441000000     5.472000000    -0.005000000
H    -3.333000000     5.322000000     0.934000000
H    -4.200000000     6.052000000    -0.069000000
O    -1.203000000     3.179000000     1.247000000
H    -1.556000000     2.680000000     0.510000000
H    -1.685000000     2.857000000     2.008000000
O    -6.108000000    -1.563000000     3.411000000
H    -5.207000000    -1.810000000     3.201000000
H    -6.231000000    -0.717000000     2.980000000
O     5.329000000     4.557000000    -0.851000000
H     5.083000000     5.098000000    -0.100000000
H     5.157000000     3.660000000    -0.567000000
O     3.817000000     0.931000000    -4.804000000
H     3.425000000     0.556000000    -5.593000000
H     4.624000000     1.345000000    -5.111000000
O    -0.631000000     3.775000000    -5.538000000
H    -0.483000000     2.924000000    -5.125000000
H    -1.340000000     4.168000000    -5.029000000
O    -4.002000000    -1.651000000    -2.284000000
H    -4.576000000    -0.887000000    -2.217000000
H    -4.127000000    -1.967000000    -3.179000000
O    -1.126000000    -4.952000000     2.929000000
H    -0.533000000    -4.752000000     2.205000000
H    -1.809000000    -5.497000000     2.537000000
O    -2.878000000    -4.307000000    -0.856000000
H    -2.996000000    -5.058000000    -1.438000000
H    -3.054000000    -3.545000000    -1.409000000
O     6.733000000     2.001000000     2.388000000
H     7.044000000     1.581000000     1.586000000
H     6.013000000     1.444000000     2.686000000
O    -0.763000000     5.786000000    -1.767000000
H    -0.010000000     5.243000000    -1.531000000
H    -1.245000000     5.897000000    -0.948000000
O    -3.529000000     2.706000000    -6.171000000
H    -3.583000000     2.346000000    -5.286000000
H    -2.631000000     2.523000000    -6.450000000
O     3.880000000    -3.422000000    -0.556000000
H     4.279000000    -2.626000000    -0.206000000
H     3.194000000    -3.107000000    -1.145000000
O     3.149000000     3.236000000    -2.976000000
H     3.407000000     3.946000000    -3.564000000
H     3.505000000     2.446000000    -3.383000000
O     4.467000000    -4.834000000     2.795000000
H     3.671000000    -4.702000000     2.280000000
H     5.158000000    -4.953000000     2.143000000
O     5.924000000    -1.595000000     1.850000000
H     4.969000000    -1.646000000     1.806000000
H     6.204000000    -1.561000000     0.935000000
O     7.016000000    -1.482000000    -0.674000000
H     7.364000000    -2.346000000    -0.896000000
H     6.898000000    -1.047000000    -1.518000000
O    -7.187000000    -1.010000000    -0.780000000
H    -6.883000000    -1.888000000    -0.550000000
H    -7.384000000    -0.596000000     0.061000000
O     1.788000000    -3.683000000     2.158000000
H     2.352000000    -3.029000000     1.744000000
H     1.061000000    -3.794000000     1.545000000
O     7.351000000     1.036000000    -0.017000000
H     7.279000000     1.650000000    -0.748000000
H     7.137000000     0.185000000    -0.397000000
O     4.023000000     1.066000000     2.895000000
H     4.185000000     0.484000000     2.154000000
H     3.476000000     0.552000000     3.489000000
O    -4.416000000     4.451000000    -2.554000000
H    -3.796000000     4.784000000    -1.905000000
H    -4.056000000     4.733000000    -3.395000000
O    -3.333000000    -0.908000000     5.691000000
H    -3.439000000    -1.163000000     4.774000000
H    -2.579000000    -1.413000000     5.995000000
O     2.437000000    -3.495000000    -3.296000000
H     1.620000000    -3.454000000    -2.800000000
H     2.844000000    -2.639000000    -3.158000000
O    -6.546000000     1.174000000     1.260000000
H    -6.981000000     1.923000000     0.851000000
H    -5.649000000     1.471000000     1.409000000
O    -4.303000000     2.702000000     0.715000000
H    -4.357000000     3.394000000     0.057000000
H    -3.883000000     3.118000000     1.467000000
O     2.515000000    -1.173000000     4.338000000
H     2.641000000    -1.345000000     3.405000000
H     2.865000000    -1.949000000     4.775000000
O    -3.806000000    -2.676000000     2.725000000
H    -2.850000000    -2.655000000     2.748000000
H    -4.017000000    -3.499000000     2.283000000
O    -2.288000000     2.282000000     3.572000000
H    -1.920000000     3.045000000     4.018000000
H    -3.108000000     2.107000000     4.033000000
O     4.216000000    -3.558000000     5.116000000
H     4.784000000    -2.790000000     5.059000000
H     4.440000000    -4.080000000     4.345000000
O    -0.569000000    -2.359000000    -2.176000000
H    -0.757000000    -1.837000000    -2.956000000
H    -0.922000000    -1.843000000    -1.451000000
O    -0.503000000    -3.906000000     0.452000000
H    -0.227000000    -3.755000000    -0.452000000
H    -1.454000000    -3.798000000     0.433000000
O     2.296000000    -5.883000000     0.058000000
H     2.785000000    -6.438000000    -0.550000000
H     2.881000000    -5.144000000     0.230000000
