158
-2997.69012
C    -0.847000000    -1.201000000    -0.432000000
H    -1.417000000    -2.095000000    -0.672000000
C    -1.289000000    -0.084000000     0.273000000
H    -2.319000000    -0.009000000     0.612000000
C    -0.456000000     0.956000000     0.659000000
H    -0.767000000     1.704000000     1.318000000
C     0.850000000     0.968000000     0.238000000
H     1.419000000     1.872000000     0.440000000
C     1.374000000    -0.080000000    -0.564000000
H     2.434000000    -0.041000000    -0.801000000
C     0.567000000    -1.229000000    -0.847000000
C     1.100000000    -2.362000000    -1.655000000
O     2.155000000    -2.299000000    -2.252000000
O     0.414000000    -3.360000000    -1.786000000
O     1.870000000     4.522000000     0.266000000
H     2.141000000     5.400000000     0.532000000
H     1.238000000     4.670000000    -0.438000000
O     6.368000000    -4.937000000    -1.880000000
H     5.824000000    -4.191000000    -1.627000000
H     5.985000000    -5.681000000    -1.416000000
O    -5.525000000    -0.705000000     0.841000000
H    -4.665000000    -0.388000000     0.567000000
H    -6.144000000    -0.092000000     0.444000000
O    -1.858000000     2.462000000    -1.694000000
H    -1.209000000     3.162000000    -1.615000000
H    -1.564000000     1.792000000    -1.077000000
O     2.409000000    -4.540000000    -3.846000000
H     2.298000000    -3.743000000    -3.327000000
H     2.355000000    -5.251000000    -3.208000000
O    -2.277000000     7.582000000     2.571000000
H    -2.571000000     8.493000000     2.590000000
H    -2.966000000     7.117000000     2.098000000
O    -0.177000000     4.600000000    -1.550000000
H    -0.505000000     5.273000000    -0.953000000
H    -0.284000000     4.980000000    -2.422000000
O    -1.883000000     4.367000000     1.986000000
H    -2.722000000     4.596000000     2.387000000
H    -2.096000000     4.189000000     1.070000000
O     0.230000000     2.395000000     4.982000000
H     0.611000000     2.712000000     4.163000000
H     0.035000000     3.191000000     5.478000000
O    -5.308000000    -4.970000000    -0.639000000
H    -4.358000000    -4.914000000    -0.741000000
H    -5.498000000    -5.908000000    -0.675000000
O     0.547000000    -1.176000000     2.640000000
H     0.551000000    -0.931000000     1.715000000
H     1.471000000    -1.195000000     2.887000000
O    -2.882000000    -4.236000000    -1.531000000
H    -2.245000000    -4.280000000    -2.244000000
H    -2.350000000    -4.202000000    -0.736000000
O    -0.135000000    -1.705000000    -4.488000000
H     0.746000000    -1.376000000    -4.308000000
H    -0.657000000    -0.918000000    -4.647000000
O     1.465000000    -7.404000000    -4.396000000
H     1.087000000    -6.589000000    -4.726000000
H     0.844000000    -7.703000000    -3.731000000
O    -3.270000000    -0.888000000     4.432000000
H    -2.353000000    -0.639000000     4.548000000
H    -3.685000000    -0.108000000     4.064000000
O    -6.458000000     2.322000000     1.385000000
H    -6.612000000     2.997000000     0.725000000
H    -7.242000000     1.773000000     1.354000000
O     4.148000000    -3.532000000     1.877000000
H     5.009000000    -3.943000000     1.941000000
H     3.540000000    -4.198000000     2.198000000
O     2.264000000     5.279000000     4.399000000
H     1.571000000     5.311000000     5.058000000
H     1.911000000     4.718000000     3.708000000
O    -0.579000000    -6.764000000    -0.134000000
H     0.296000000    -6.908000000    -0.493000000
H    -0.536000000    -5.894000000     0.262000000
O    -6.685000000    -1.638000000     3.516000000
H    -5.944000000    -1.502000000     4.107000000
H    -6.285000000    -1.766000000     2.656000000
O     0.242000000    -4.920000000     1.990000000
H     0.426000000    -4.745000000     2.913000000
H    -0.641000000    -4.575000000     1.853000000
O     4.590000000     1.149000000     2.884000000
H     4.188000000     1.763000000     2.270000000
H     5.228000000     0.667000000     2.357000000
O    -4.938000000    -1.075000000    -3.740000000
H    -4.483000000    -0.606000000    -3.041000000
H    -5.201000000    -1.904000000    -3.341000000
O     2.371000000     0.880000000     6.342000000
H     3.287000000     0.998000000     6.092000000
H     1.898000000     1.546000000     5.844000000
O     5.201000000     0.850000000    -1.068000000
H     5.926000000     0.335000000    -0.714000000
H     4.903000000     1.382000000    -0.330000000
O    -0.870000000     6.683000000    -0.066000000
H    -1.244000000     6.896000000     0.788000000
H    -1.158000000     7.394000000    -0.638000000
O    -2.616000000    -2.991000000    -5.645000000
H    -2.298000000    -3.707000000    -5.096000000
H    -2.102000000    -2.232000000    -5.370000000
O     1.117000000    -3.650000000    -5.982000000
H     0.179000000    -3.555000000    -5.816000000
H     1.483000000    -3.921000000    -5.140000000
O     2.409000000     3.168000000    -2.903000000
H     2.643000000     2.244000000    -2.992000000
H     1.571000000     3.159000000    -2.441000000
O     4.434000000     2.814000000     0.680000000
H     3.569000000     3.221000000     0.629000000
H     5.022000000     3.530000000     0.922000000
O    -2.141000000    -3.486000000     1.555000000
H    -2.910000000    -3.620000000     2.109000000
H    -1.691000000    -2.737000000     1.945000000
O     1.929000000    -5.588000000    -0.944000000
H     1.409000000    -4.795000000    -1.077000000
H     2.539000000    -5.360000000    -0.243000000
O     0.810000000     3.586000000     2.633000000
H     1.198000000     3.701000000     1.766000000
H    -0.105000000     3.843000000     2.521000000
O     4.487000000    -2.905000000    -1.308000000
H     3.586000000    -2.738000000    -1.583000000
H     4.590000000    -2.395000000    -0.505000000
O    -4.386000000     0.999000000    -1.146000000
H    -5.303000000     1.248000000    -1.264000000
H    -3.893000000     1.791000000    -1.360000000
O     3.302000000    -1.223000000     3.453000000
H     3.396000000    -1.879000000     2.762000000
H     3.947000000    -0.551000000     3.234000000
O     6.431000000    -2.683000000    -3.324000000
H     6.259000000    -3.625000000    -3.336000000
H     5.703000000    -2.314000000    -2.824000000
O     4.849000000    -4.958000000    -5.178000000
H     4.534000000    -4.249000000    -4.617000000
H     4.967000000    -4.550000000    -6.036000000
O     3.389000000     0.169000000    -3.137000000
H     2.958000000    -0.669000000    -2.972000000
H     3.981000000     0.285000000    -2.394000000
O     6.725000000     3.139000000    -1.898000000
H     6.815000000     3.487000000    -1.010000000
H     6.085000000     2.432000000    -1.814000000
O    -0.665000000    -0.288000000     4.855000000
H    -0.504000000     0.656000000     4.866000000
H    -0.398000000    -0.566000000     3.979000000
O    -1.085000000    -4.533000000    -3.695000000
H    -0.660000000    -5.376000000    -3.538000000
H    -0.465000000    -3.886000000    -3.358000000
O    -4.843000000     4.086000000     2.972000000
H    -4.673000000     4.936000000     2.566000000
H    -5.380000000     3.618000000     2.334000000
O    -4.651000000     1.248000000     3.661000000
H    -5.302000000     1.362000000     2.969000000
H    -4.088000000     2.019000000     3.589000000
O     1.528000000     1.472000000    -5.937000000
H     1.148000000     0.892000000    -6.596000000
H     1.687000000     0.906000000    -5.181000000
O    -6.044000000    -2.579000000    -1.626000000
H    -5.892000000    -3.415000000    -1.186000000
H    -5.933000000    -1.923000000    -0.939000000
O    -4.772000000     5.051000000    -0.647000000
H    -5.077000000     4.230000000    -1.032000000
H    -4.637000000     5.632000000    -1.396000000
O    -0.810000000    -7.321000000    -2.746000000
H    -1.178000000    -8.195000000    -2.875000000
H    -0.859000000    -7.177000000    -1.801000000
