158
-3038.30942
C     0.885000000     1.193000000     0.144000000
H     1.398000000     2.125000000     0.366000000
C     0.254000000     0.535000000     1.206000000
H     0.357000000     0.934000000     2.212000000
C    -0.450000000    -0.660000000     0.938000000
H    -0.962000000    -1.236000000     1.710000000
C    -0.686000000    -1.026000000    -0.395000000
H    -1.233000000    -1.929000000    -0.654000000
C    -0.214000000    -0.257000000    -1.413000000
H    -0.487000000    -0.511000000    -2.434000000
C     0.651000000     0.857000000    -1.184000000
C     1.103000000     1.667000000    -2.302000000
O     1.892000000     2.591000000    -2.054000000
O     0.847000000     1.366000000    -3.488000000
O     2.618000000     5.671000000    -0.410000000
H     3.026000000     4.805000000    -0.413000000
H     2.866000000     6.056000000    -1.250000000
O    -5.729000000    -3.088000000     1.199000000
H    -5.328000000    -3.881000000     0.843000000
H    -5.852000000    -2.520000000     0.438000000
O    -1.953000000     2.263000000     6.375000000
H    -1.135000000     1.990000000     5.959000000
H    -2.399000000     1.444000000     6.588000000
O     3.270000000    -1.219000000    -1.717000000
H     2.922000000    -1.033000000    -2.589000000
H     4.098000000    -1.671000000    -1.881000000
O     0.814000000     2.129000000     6.085000000
H     0.979000000     1.333000000     5.580000000
H     1.487000000     2.125000000     6.766000000
O    -3.546000000     0.126000000     0.276000000
H    -2.637000000    -0.174000000     0.266000000
H    -4.057000000    -0.650000000     0.047000000
O    -0.642000000     7.202000000    -0.127000000
H    -0.258000000     6.354000000    -0.348000000
H    -1.575000000     7.020000000    -0.015000000
O    -2.474000000     2.892000000     0.483000000
H    -2.540000000     1.937000000     0.455000000
H    -2.443000000     3.102000000     1.416000000
O     2.575000000     6.407000000    -3.168000000
H     1.971000000     5.804000000    -3.601000000
H     2.787000000     7.056000000    -3.838000000
O     1.414000000    -3.001000000    -4.485000000
H     2.278000000    -2.591000000    -4.539000000
H     0.810000000    -2.269000000    -4.364000000
O     5.011000000     0.373000000    -0.187000000
H     5.318000000    -0.434000000     0.227000000
H     4.301000000     0.091000000    -0.764000000
O    -5.260000000    -0.359000000     4.190000000
H    -4.800000000    -0.690000000     4.961000000
H    -5.403000000    -1.133000000     3.645000000
O     0.274000000    -4.377000000    -2.457000000
H     0.714000000    -3.740000000    -3.020000000
H     0.110000000    -5.127000000    -3.029000000
O    -4.849000000    -3.263000000     3.876000000
H    -5.360000000    -3.957000000     4.291000000
H    -5.021000000    -3.366000000     2.940000000
O    -0.683000000     4.350000000    -1.321000000
H     0.252000000     4.311000000    -1.522000000
H    -0.807000000     3.699000000    -0.629000000
O     3.513000000     0.425000000     5.660000000
H     3.960000000     0.268000000     6.492000000
H     2.864000000    -0.277000000     5.601000000
O    -5.549000000     1.915000000     0.585000000
H    -4.718000000     1.441000000     0.616000000
H    -5.877000000     1.765000000    -0.301000000
O     5.447000000     4.622000000     2.585000000
H     4.802000000     3.929000000     2.445000000
H     5.545000000     4.668000000     3.536000000
O    -2.080000000    -5.062000000     1.570000000
H    -2.972000000    -5.324000000     1.342000000
H    -1.803000000    -4.500000000     0.847000000
O    -2.802000000    -0.394000000     6.395000000
H    -1.895000000    -0.548000000     6.128000000
H    -3.148000000    -1.266000000     6.582000000
O    -2.974000000     0.434000000    -5.870000000
H    -2.045000000     0.666000000    -5.888000000
H    -3.140000000     0.182000000    -4.961000000
O    -2.434000000    -4.105000000    -1.097000000
H    -1.615000000    -4.130000000    -1.593000000
H    -2.878000000    -4.921000000    -1.327000000
O     0.639000000    -4.704000000     0.181000000
H     0.592000000    -4.698000000    -0.775000000
H     1.084000000    -3.886000000     0.404000000
O     1.139000000    -5.980000000     3.597000000
H     0.856000000    -6.277000000     2.732000000
H     1.505000000    -6.762000000     4.010000000
O    -2.455000000     2.546000000    -2.505000000
H    -1.782000000     2.694000000    -1.840000000
H    -2.231000000     3.152000000    -3.211000000
O     1.155000000     4.986000000     2.958000000
H     1.735000000     5.679000000     2.644000000
H     1.630000000     4.175000000     2.775000000
O    -1.331000000     5.418000000     3.150000000
H    -1.385000000     5.969000000     2.369000000
H    -0.395000000     5.259000000     3.267000000
O     1.239000000     3.789000000    -7.104000000
H     0.903000000     4.376000000    -6.426000000
H     1.624000000     3.059000000    -6.619000000
O     2.440000000    -1.965000000     6.120000000
H     2.806000000    -2.780000000     6.463000000
H     2.220000000    -2.165000000     5.210000000
O    -3.606000000     0.033000000    -3.141000000
H    -3.323000000     0.890000000    -2.820000000
H    -3.789000000    -0.471000000    -2.348000000
O     2.936000000     3.139000000     2.529000000
H     3.416000000     2.410000000     2.923000000
H     3.215000000     3.142000000     1.613000000
O    -0.572000000    -2.043000000     5.426000000
H     0.251000000    -2.463000000     5.174000000
H    -1.239000000    -2.496000000     4.910000000
O     0.801000000    -0.275000000     7.793000000
H     1.393000000    -0.119000000     8.528000000
H     1.222000000    -0.971000000     7.289000000
O    -0.345000000    -0.365000000    -5.063000000
H     0.455000000    -0.416000000    -5.588000000
H    -0.185000000     0.355000000    -4.453000000
O     0.382000000    -7.250000000     1.289000000
H     0.529000000    -6.357000000     0.979000000
H     0.507000000    -7.797000000     0.513000000
O    -2.186000000    -2.646000000    -6.122000000
H    -2.155000000    -1.753000000    -5.778000000
H    -1.473000000    -2.682000000    -6.759000000
O    -4.226000000    -2.104000000    -1.100000000
H    -4.890000000    -2.487000000    -1.674000000
H    -3.458000000    -2.662000000    -1.217000000
O     0.827000000     4.535000000    -4.353000000
H    -0.091000000     4.290000000    -4.464000000
H     1.189000000     3.855000000    -3.785000000
O     1.995000000    -2.401000000     0.321000000
H     2.334000000    -2.008000000    -0.483000000
H     1.385000000    -1.750000000     0.667000000
O    -2.620000000     2.973000000     3.247000000
H    -2.581000000     2.805000000     4.189000000
H    -2.093000000     3.762000000     3.123000000
O     5.816000000     5.751000000    -0.843000000
H     5.202000000     5.203000000    -0.354000000
H     6.489000000     5.143000000    -1.148000000
O     3.713000000     3.136000000    -0.347000000
H     4.142000000     2.288000000    -0.238000000
H     2.971000000     2.957000000    -0.925000000
O     3.641000000    -1.807000000    -4.464000000
H     4.391000000    -2.020000000    -3.909000000
H     4.027000000    -1.554000000    -5.302000000
O     4.608000000     2.674000000    -3.480000000
H     3.878000000     2.660000000    -2.862000000
H     4.812000000     3.602000000    -3.590000000
O    -1.837000000     4.469000000    -4.185000000
H    -1.502000000     5.306000000    -3.862000000
H    -2.634000000     4.699000000    -4.663000000
O    -1.969000000    -3.766000000     3.910000000
H    -2.916000000    -3.905000000     3.887000000
H    -1.661000000    -4.080000000     3.060000000
O     1.442000000    -3.317000000     3.836000000
H     1.279000000    -3.364000000     2.893000000
H     1.426000000    -4.229000000     4.127000000
O     2.324000000     1.390000000    -5.556000000
H     1.972000000     1.456000000    -4.668000000
H     3.268000000     1.285000000    -5.432000000
