158
-3049.13869
C     0.948000000     1.175000000     0.242000000
H     1.600000000     1.996000000     0.528000000
C     0.460000000     0.162000000     1.134000000
H     0.790000000     0.309000000     2.159000000
C    -0.392000000    -0.890000000     0.824000000
H    -0.618000000    -1.684000000     1.557000000
C    -0.907000000    -0.944000000    -0.497000000
H    -1.500000000    -1.766000000    -0.888000000
C    -0.526000000     0.100000000    -1.353000000
H    -0.989000000     0.184000000    -2.333000000
C     0.416000000     1.111000000    -1.006000000
C     0.958000000     2.072000000    -2.131000000
O     2.098000000     2.575000000    -2.039000000
O     0.212000000     2.416000000    -3.089000000
O     2.787000000     5.259000000    -3.418000000
H     2.641000000     5.880000000    -2.705000000
H     2.812000000     4.404000000    -2.990000000
O    -0.093000000    -1.830000000    -4.806000000
H     0.487000000    -1.900000000    -5.564000000
H     0.487000000    -1.926000000    -4.051000000
O    -4.728000000    -0.296000000     3.135000000
H    -5.139000000     0.491000000     3.492000000
H    -3.802000000    -0.206000000     3.360000000
O    -0.328000000     1.261000000     4.964000000
H     0.100000000     1.800000000     4.298000000
H     0.320000000     1.184000000     5.664000000
O    -3.455000000    -5.339000000    -1.193000000
H    -2.561000000    -5.642000000    -1.034000000
H    -3.414000000    -4.906000000    -2.046000000
O    -1.224000000     4.478000000     0.186000000
H    -1.048000000     4.547000000    -0.752000000
H    -1.677000000     3.640000000     0.284000000
O    -3.916000000     2.833000000    -1.098000000
H    -4.532000000     3.462000000    -0.724000000
H    -3.372000000     2.562000000    -0.359000000
O     1.583000000    -2.256000000    -2.864000000
H     1.090000000    -2.772000000    -2.226000000
H     2.419000000    -2.078000000    -2.432000000
O    -2.936000000     0.544000000    -6.144000000
H    -2.746000000     1.092000000    -5.382000000
H    -2.668000000    -0.336000000    -5.878000000
O     5.417000000     3.497000000     1.215000000
H     5.757000000     3.197000000     0.372000000
H     4.679000000     4.063000000     0.988000000
O     6.474000000     1.682000000    -3.501000000
H     5.563000000     1.438000000    -3.340000000
H     6.421000000     2.428000000    -4.099000000
O     5.047000000    -3.665000000     0.428000000
H     4.493000000    -3.248000000     1.088000000
H     4.480000000    -4.317000000     0.017000000
O     1.866000000    -2.933000000     6.218000000
H     1.089000000    -2.976000000     5.661000000
H     1.916000000    -2.016000000     6.489000000
O    -0.204000000     7.139000000    -0.817000000
H    -0.948000000     7.628000000    -0.465000000
H    -0.580000000     6.310000000    -1.113000000
O    -5.600000000    -1.428000000     0.390000000
H    -5.179000000    -2.239000000     0.677000000
H    -5.409000000    -0.800000000     1.086000000
O     3.178000000    -5.517000000    -0.347000000
H     2.396000000    -5.413000000    -0.890000000
H     2.846000000    -5.529000000     0.551000000
O     3.826000000     6.966000000    -0.331000000
H     3.910000000     7.218000000     0.588000000
H     3.497000000     6.067000000    -0.304000000
O    -4.932000000    -0.324000000    -3.843000000
H    -4.101000000    -0.745000000    -4.060000000
H    -5.114000000     0.247000000    -4.589000000
O     1.972000000    -5.064000000     2.106000000
H     1.228000000    -5.541000000     2.473000000
H     2.240000000    -4.465000000     2.803000000
O    -3.286000000    -4.450000000    -3.734000000
H    -3.861000000    -4.988000000    -4.278000000
H    -2.404000000    -4.646000000    -4.051000000
O    -2.702000000     1.907000000    -3.816000000
H    -1.835000000     2.135000000    -3.479000000
H    -3.258000000     1.868000000    -3.038000000
O     5.534000000    -0.260000000     0.756000000
H     6.283000000    -0.334000000     1.347000000
H     5.083000000    -1.101000000     0.834000000
O     3.009000000    -1.608000000     0.301000000
H     2.230000000    -1.094000000     0.090000000
H     3.586000000    -1.491000000    -0.454000000
O     0.366000000     4.193000000    -4.894000000
H     0.404000000     3.332000000    -4.476000000
H     1.058000000     4.697000000    -4.467000000
O    -0.349000000     1.662000000    -7.195000000
H    -1.120000000     1.895000000    -6.678000000
H    -0.556000000     1.961000000    -8.081000000
O    -2.768000000     0.102000000     4.525000000
H    -3.274000000     0.537000000     5.211000000
H    -1.948000000     0.595000000     4.484000000
O    -2.825000000    -1.851000000    -4.949000000
H    -2.925000000    -2.577000000    -4.334000000
H    -1.885000000    -1.815000000    -5.128000000
O     5.561000000     4.410000000    -4.531000000
H     6.219000000     4.960000000    -4.956000000
H     5.437000000     4.807000000    -3.669000000
O     4.186000000     1.616000000     2.788000000
H     4.132000000     0.785000000     2.317000000
H     4.702000000     2.183000000     2.215000000
O    -2.039000000    -4.392000000     2.866000000
H    -1.897000000    -5.282000000     2.544000000
H    -2.646000000    -4.004000000     2.236000000
O    -4.076000000    -4.043000000     1.208000000
H    -4.804000000    -4.597000000     1.490000000
H    -3.893000000    -4.325000000     0.312000000
O    -0.850000000    -6.677000000    -0.652000000
H    -0.186000000    -6.111000000    -1.045000000
H    -0.650000000    -7.550000000    -0.989000000
O     2.240000000     1.205000000    -7.570000000
H     2.773000000     1.658000000    -6.917000000
H     1.340000000     1.316000000    -7.263000000
O    -1.838000000    -6.968000000     1.959000000
H    -1.295000000    -7.755000000     1.934000000
H    -1.844000000    -6.652000000     1.055000000
O     1.930000000    -0.468000000     4.382000000
H     1.112000000    -0.963000000     4.340000000
H     1.682000000     0.370000000     4.773000000
O    -0.659000000    -5.057000000     5.172000000
H    -0.859000000    -4.688000000     4.312000000
H    -0.009000000    -5.738000000     4.995000000
O    -0.985000000     4.811000000    -2.322000000
H    -1.705000000     4.844000000    -2.952000000
H    -0.362000000     4.193000000    -2.703000000
O    -2.202000000     2.218000000     0.919000000
H    -2.178000000     2.259000000     1.875000000
H    -1.766000000     1.394000000     0.703000000
O     0.320000000     4.868000000    -7.672000000
H     0.646000000     4.393000000    -6.907000000
H     0.298000000     4.213000000    -8.369000000
O     1.155000000     4.580000000     1.680000000
H     1.170000000     5.354000000     2.242000000
H     0.346000000     4.666000000     1.175000000
O     1.847000000     2.802000000     3.701000000
H     2.614000000     2.320000000     3.390000000
H     1.592000000     3.350000000     2.959000000
O     3.328000000     2.557000000    -5.261000000
H     2.837000000     2.838000000    -4.489000000
H     4.161000000     3.023000000    -5.198000000
O     4.064000000     0.809000000    -3.012000000
H     3.565000000     0.817000000    -3.828000000
H     3.718000000     1.547000000    -2.511000000
O     4.327000000    -1.901000000    -2.274000000
H     5.169000000    -2.317000000    -2.089000000
H     4.554000000    -1.099000000    -2.745000000
O    -2.376000000     3.177000000     3.445000000
H    -2.058000000     4.038000000     3.175000000
H    -2.654000000     3.298000000     4.353000000
O     3.042000000    -2.276000000     3.024000000
H     2.751000000    -1.963000000     2.168000000
H     2.837000000    -1.559000000     3.624000000
O     2.955000000     4.353000000    -0.355000000
H     2.668000000     3.710000000    -1.003000000
H     2.249000000     4.375000000     0.291000000
O    -0.435000000    -1.965000000     4.793000000
H    -1.099000000    -2.648000000     4.887000000
H    -0.911000000    -1.147000000     4.937000000
