158
-3044.36608
C    -0.941000000    -1.001000000    -0.770000000
H    -1.656000000    -1.747000000    -1.111000000
C    -1.366000000    -0.063000000     0.195000000
H    -2.409000000     0.020000000     0.493000000
C    -0.428000000     0.827000000     0.752000000
H    -0.803000000     1.383000000     1.665000000
C     0.902000000     0.778000000     0.361000000
H     1.607000000     1.407000000     0.898000000
C     1.297000000    -0.059000000    -0.648000000
H     2.351000000    -0.074000000    -0.912000000
C     0.405000000    -0.999000000    -1.108000000
C     1.013000000    -2.070000000    -2.015000000
O     2.113000000    -2.000000000    -2.604000000
O     0.261000000    -2.913000000    -2.403000000
O     2.018000000     4.128000000    -0.380000000
H     1.699000000     5.004000000    -0.163000000
H     1.379000000     3.790000000    -1.008000000
O     5.452000000    -4.941000000    -2.969000000
H     4.945000000    -4.232000000    -2.572000000
H     5.727000000    -5.482000000    -2.228000000
O    -2.125000000    -5.191000000    -4.758000000
H    -1.232000000    -5.184000000    -5.101000000
H    -2.682000000    -5.149000000    -5.535000000
O    -0.681000000     2.044000000    -2.440000000
H    -0.390000000     1.341000000    -1.859000000
H    -1.629000000     1.931000000    -2.498000000
O     2.211000000    -4.119000000    -4.144000000
H     2.049000000    -3.346000000    -3.603000000
H     3.165000000    -4.182000000    -4.191000000
O     4.489000000    -1.579000000    -5.105000000
H     3.870000000    -0.891000000    -4.863000000
H     5.255000000    -1.418000000    -4.553000000
O    -1.562000000     4.556000000    -0.865000000
H    -2.229000000     5.166000000    -1.180000000
H    -1.215000000     4.150000000    -1.659000000
O    -0.891000000     2.273000000     4.933000000
H    -0.195000000     2.603000000     4.365000000
H    -0.734000000     2.697000000     5.776000000
O    -4.945000000    -3.171000000    -1.857000000
H    -4.075000000    -3.413000000    -2.173000000
H    -4.878000000    -3.223000000    -0.904000000
O    -0.476000000    -1.194000000     3.085000000
H    -1.077000000    -1.938000000     3.114000000
H    -0.693000000    -0.744000000     2.268000000
O    -3.042000000    -3.837000000     0.498000000
H    -2.740000000    -3.656000000    -0.393000000
H    -2.743000000    -4.728000000     0.675000000
O     3.077000000    -7.015000000    -1.933000000
H     3.971000000    -6.775000000    -1.689000000
H     2.585000000    -6.196000000    -1.877000000
O    -0.390000000    -1.021000000    -4.660000000
H    -0.130000000    -1.713000000    -4.052000000
H    -0.849000000    -1.480000000    -5.363000000
O    -1.906000000     4.663000000     1.731000000
H    -1.587000000     4.437000000     0.857000000
H    -1.943000000     5.620000000     1.732000000
O    -5.764000000     4.566000000     2.780000000
H    -6.019000000     3.726000000     3.161000000
H    -5.341000000     4.335000000     1.953000000
O    -4.805000000     0.902000000     1.881000000
H    -4.051000000     1.362000000     2.250000000
H    -5.415000000     1.598000000     1.638000000
O    -1.655000000    -0.287000000     5.710000000
H    -1.546000000     0.661000000     5.628000000
H    -1.428000000    -0.629000000     4.846000000
O     2.256000000    -0.657000000     3.830000000
H     1.328000000    -0.473000000     3.977000000
H     2.695000000    -0.310000000     4.607000000
O     0.824000000    -3.598000000     1.306000000
H     0.319000000    -2.958000000     1.808000000
H     1.660000000    -3.164000000     1.136000000
O     0.462000000     5.525000000     5.770000000
H    -0.393000000     5.877000000     6.017000000
H     0.359000000     5.267000000     4.854000000
O    -2.122000000    -6.646000000     0.458000000
H    -1.409000000    -6.363000000    -0.116000000
H    -1.683000000    -6.952000000     1.251000000
O    -6.729000000    -1.198000000     1.999000000
H    -6.256000000    -1.827000000     2.544000000
H    -6.093000000    -0.502000000     1.830000000
O     4.770000000     0.230000000     1.873000000
H     4.395000000     1.078000000     1.633000000
H     5.712000000     0.392000000     1.923000000
O    -4.884000000    -1.399000000    -5.343000000
H    -4.189000000    -1.121000000    -4.746000000
H    -5.150000000    -0.597000000    -5.791000000
O     2.781000000     2.200000000     5.563000000
H     3.584000000     1.795000000     5.234000000
H     2.509000000     2.795000000     4.865000000
O     4.867000000     1.236000000    -1.488000000
H     4.693000000     1.753000000    -0.702000000
H     4.845000000     1.872000000    -2.203000000
O    -2.812000000    -1.084000000    -3.625000000
H    -2.540000000    -1.885000000    -3.176000000
H    -1.992000000    -0.673000000    -3.899000000
O     0.398000000    -5.652000000    -5.241000000
H     1.192000000    -5.274000000    -4.863000000
H     0.681000000    -6.016000000    -6.080000000
O     4.798000000     2.208000000    -4.341000000
H     4.060000000     1.601000000    -4.288000000
H     4.626000000     2.726000000    -5.127000000
O     4.820000000     0.679000000     4.593000000
H     5.529000000     0.057000000     4.757000000
H     4.454000000     0.408000000     3.750000000
O     4.039000000     2.513000000     0.816000000
H     3.242000000     2.835000000     0.396000000
H     4.404000000     3.281000000     1.256000000
O    -2.390000000    -3.028000000     3.077000000
H    -3.152000000    -2.746000000     3.583000000
H    -2.669000000    -2.959000000     2.164000000
O     0.186000000    -5.337000000    -0.926000000
H     0.420000000    -5.003000000    -1.793000000
H     0.387000000    -4.615000000    -0.330000000
O     4.629000000     4.730000000     2.205000000
H     3.873000000     5.178000000     2.585000000
H     5.325000000     5.388000000     2.210000000
O     1.091000000     4.124000000     3.312000000
H     1.208000000     3.445000000     2.647000000
H     1.195000000     4.947000000     2.835000000
O     3.953000000    -3.626000000    -1.078000000
H     3.211000000    -3.296000000    -1.585000000
H     3.784000000    -3.327000000    -0.184000000
O     1.172000000     2.340000000    -4.567000000
H     0.990000000     3.175000000    -4.998000000
H     0.649000000     2.365000000    -3.766000000
O    -3.533000000     1.780000000    -2.961000000
H    -3.333000000     0.907000000    -3.300000000
H    -4.333000000     1.660000000    -2.449000000
O     3.178000000    -2.097000000     1.433000000
H     2.710000000    -1.687000000     2.161000000
H     3.830000000    -1.447000000     1.171000000
O     5.732000000    -1.050000000    -2.575000000
H     6.127000000    -1.576000000    -1.879000000
H     5.243000000    -0.370000000    -2.113000000
O     1.814000000     6.277000000     1.457000000
H     2.635000000     6.768000000     1.436000000
H     1.182000000     6.847000000     1.019000000
O     2.921000000    -3.053000000    -6.877000000
H     2.265000000    -3.474000000    -6.322000000
H     3.506000000    -2.610000000    -6.262000000
O     2.797000000     0.158000000    -4.354000000
H     2.307000000    -0.490000000    -3.849000000
H     2.160000000     0.849000000    -4.539000000
O    -2.978000000     2.555000000     3.204000000
H    -2.782000000     3.453000000     2.938000000
H    -2.215000000     2.285000000     3.716000000
O    -2.147000000    -3.941000000    -2.454000000
H    -2.291000000    -4.336000000    -3.314000000
H    -1.237000000    -3.645000000    -2.476000000
O    -4.277000000     3.663000000     0.414000000
H    -3.408000000     4.054000000     0.506000000
H    -4.211000000     3.114000000    -0.367000000
O    -5.206000000     2.577000000     5.066000000
H    -4.611000000     2.663000000     5.812000000
H    -4.628000000     2.491000000     4.308000000
O    -2.107000000    -7.052000000    -2.696000000
H    -1.947000000    -6.416000000    -3.393000000
H    -2.258000000    -6.519000000    -1.915000000
