158
-3004.16209
C     1.000000000     1.064000000     0.029000000
H     1.772000000     1.827000000     0.082000000
C     0.911000000     0.063000000     0.974000000
H     1.645000000    -0.079000000     1.764000000
C    -0.032000000    -0.922000000     0.813000000
H    -0.027000000    -1.846000000     1.474000000
C    -0.999000000    -0.773000000    -0.190000000
H    -1.837000000    -1.465000000    -0.215000000
C    -0.976000000     0.301000000    -1.048000000
H    -1.779000000     0.246000000    -1.778000000
C     0.060000000     1.177000000    -1.004000000
C     0.187000000     2.244000000    -2.049000000
O     1.253000000     2.597000000    -2.548000000
O    -0.832000000     2.699000000    -2.472000000
O    -2.282000000     3.758000000    -0.497000000
H    -1.730000000     3.380000000    -1.181000000
H    -3.030000000     3.164000000    -0.438000000
O    -0.663000000     0.985000000     3.504000000
H    -0.513000000     0.127000000     3.899000000
H     0.036000000     1.077000000     2.856000000
O     2.206000000    -5.004000000    -1.829000000
H     2.848000000    -5.237000000    -1.158000000
H     2.706000000    -4.508000000    -2.477000000
O    -3.076000000    -4.763000000    -0.047000000
H    -2.794000000    -3.995000000     0.450000000
H    -3.958000000    -4.544000000    -0.346000000
O    -4.219000000     1.852000000    -1.021000000
H    -4.452000000     1.159000000    -0.404000000
H    -4.570000000     1.553000000    -1.860000000
O    -2.990000000    -1.278000000    -3.444000000
H    -2.518000000    -1.402000000    -4.267000000
H    -3.212000000    -2.164000000    -3.159000000
O    -2.296000000     6.699000000    -4.119000000
H    -1.982000000     6.903000000    -5.000000000
H    -2.988000000     7.341000000    -3.957000000
O    -1.142000000    -1.339000000     4.847000000
H    -0.854000000    -2.101000000     5.349000000
H    -2.046000000    -1.196000000     5.128000000
O     5.090000000    -0.560000000     0.785000000
H     4.370000000    -1.048000000     0.385000000
H     5.878000000    -0.916000000     0.374000000
O    -2.469000000    -3.812000000     6.378000000
H    -1.745000000    -3.694000000     6.993000000
H    -2.052000000    -4.111000000     5.571000000
O    -3.486000000     4.204000000    -6.646000000
H    -3.458000000     5.154000000    -6.530000000
H    -3.296000000     3.852000000    -5.776000000
O    -1.690000000    -4.789000000     4.004000000
H    -0.900000000    -5.026000000     3.518000000
H    -2.218000000    -4.294000000     3.376000000
O     0.877000000     3.328000000     2.122000000
H     0.188000000     3.368000000     1.459000000
H     0.987000000     4.234000000     2.409000000
O     3.180000000    -1.837000000     3.292000000
H     3.237000000    -1.773000000     2.338000000
H     3.425000000    -0.967000000     3.606000000
O    -3.282000000    -2.521000000     2.084000000
H    -4.222000000    -2.395000000     2.213000000
H    -2.873000000    -1.868000000     2.652000000
O    -0.024000000    -5.309000000    -0.038000000
H     0.633000000    -4.836000000    -0.549000000
H    -0.857000000    -5.082000000    -0.451000000
O     6.132000000     3.653000000     0.096000000
H     6.690000000     4.320000000     0.495000000
H     6.234000000     2.886000000     0.661000000
O     3.092000000    -0.946000000    -2.418000000
H     3.787000000    -1.491000000    -2.786000000
H     3.339000000    -0.051000000    -2.653000000
O    -2.870000000     6.575000000    -0.708000000
H    -2.561000000     6.785000000    -1.589000000
H    -2.486000000     5.719000000    -0.518000000
O     3.849000000     0.191000000     5.150000000
H     4.777000000     0.300000000     4.942000000
H     3.811000000     0.235000000     6.106000000
O     1.743000000    -3.911000000     4.746000000
H     2.387000000    -3.229000000     4.557000000
H     1.416000000    -4.177000000     3.887000000
O     0.972000000    -0.861000000    -4.262000000
H     0.322000000    -0.195000000    -4.035000000
H     1.664000000    -0.751000000    -3.609000000
O    -4.916000000     4.719000000    -3.591000000
H    -3.989000000     4.939000000    -3.685000000
H    -4.939000000     3.762000000    -3.626000000
O     4.437000000    -5.331000000     2.205000000
H     4.823000000    -4.849000000     1.474000000
H     3.736000000    -5.848000000     1.808000000
O     0.497000000    -5.037000000     2.586000000
H     0.542000000    -5.985000000     2.710000000
H     0.514000000    -4.918000000     1.636000000
O    -2.616000000     2.802000000    -4.302000000
H    -3.109000000     1.993000000    -4.162000000
H    -1.984000000     2.825000000    -3.584000000
O     5.575000000     3.282000000     3.217000000
H     5.777000000     4.088000000     2.743000000
H     4.979000000     2.806000000     2.638000000
O     2.650000000     4.546000000    -1.940000000
H     2.100000000     5.256000000    -2.272000000
H     2.211000000     3.747000000    -2.231000000
O    -0.037000000     5.218000000    -2.934000000
H    -0.207000000     4.327000000    -2.629000000
H    -0.903000000     5.573000000    -3.132000000
O    -4.475000000     0.986000000    -3.660000000
H    -4.099000000     0.112000000    -3.556000000
H    -5.239000000     0.853000000    -4.220000000
O     0.162000000    -2.813000000     6.783000000
H     0.522000000    -3.218000000     5.994000000
H     0.928000000    -2.605000000     7.317000000
O    -4.808000000    -0.392000000     0.328000000
H    -4.267000000    -0.928000000     0.907000000
H    -5.163000000    -1.011000000    -0.309000000
O    -1.283000000    -1.433000000    -5.706000000
H    -0.399000000    -1.495000000    -5.346000000
H    -1.397000000    -2.244000000    -6.202000000
O    -3.751000000    -4.165000000    -3.374000000
H    -4.265000000    -3.971000000    -2.590000000
H    -4.080000000    -5.013000000    -3.673000000
O     3.286000000     5.564000000     1.362000000
H     3.478000000     5.249000000     0.478000000
H     4.142000000     5.629000000     1.784000000
O     0.746000000    -3.530000000    -4.548000000
H     1.653000000    -3.789000000    -4.386000000
H     0.717000000    -2.601000000    -4.319000000
O     0.782000000     5.454000000    -6.115000000
H     0.445000000     5.211000000    -6.977000000
H     0.472000000     4.761000000    -5.532000000
O     0.442000000     2.814000000    -7.969000000
H     0.442000000     2.994000000    -7.029000000
H    -0.356000000     2.305000000    -8.115000000
O     4.025000000     1.941000000     1.565000000
H     4.243000000     1.018000000     1.435000000
H     3.131000000     2.025000000     1.235000000
O    -3.732000000    -0.505000000     5.515000000
H    -3.302000000     0.288000000     5.837000000
H    -4.091000000    -0.918000000     6.299000000
O    -4.963000000    -5.440000000     2.183000000
H    -5.367000000    -5.589000000     1.328000000
H    -4.360000000    -4.711000000     2.039000000
O     2.751000000     3.746000000     4.174000000
H     3.311000000     3.549000000     3.423000000
H     1.960000000     3.228000000     4.025000000
O     5.561000000     5.121000000    -2.177000000
H     6.030000000     4.450000000    -1.681000000
H     4.640000000     4.868000000    -2.109000000
O    -0.140000000     2.862000000    -5.330000000
H     0.271000000     2.783000000    -4.469000000
H    -1.077000000     2.918000000    -5.143000000
O     1.529000000     7.271000000    -3.090000000
H     0.902000000     7.951000000    -3.338000000
H     1.013000000     6.465000000    -3.073000000
O     3.013000000    -2.218000000     0.157000000
H     3.489000000    -2.978000000    -0.178000000
H     2.568000000    -1.857000000    -0.610000000
O    -2.920000000     1.198000000     1.763000000
H    -2.212000000     1.023000000     2.383000000
H    -2.480000000     1.292000000     0.918000000
O     3.374000000     1.603000000    -4.125000000
H     2.679000000     2.047000000    -3.639000000
H     3.959000000     2.307000000    -4.404000000
