158
-3046.71069
C     0.491000000     0.795000000    -1.188000000
H     0.987000000     1.189000000    -2.071000000
C     1.255000000     0.529000000    -0.056000000
H     2.274000000     0.890000000     0.052000000
C     0.705000000    -0.210000000     0.962000000
H     1.362000000    -0.604000000     1.797000000
C    -0.660000000    -0.589000000     0.943000000
H    -1.016000000    -1.182000000     1.782000000
C    -1.444000000    -0.264000000    -0.185000000
H    -2.489000000    -0.557000000    -0.129000000
C    -0.885000000     0.397000000    -1.249000000
C    -1.681000000     0.596000000    -2.486000000
O    -1.130000000     0.708000000    -3.516000000
O    -2.871000000     0.600000000    -2.443000000
O     3.828000000     4.087000000    -4.025000000
H     3.163000000     4.772000000    -3.953000000
H     4.477000000     4.446000000    -4.630000000
O     3.370000000    -0.796000000     4.228000000
H     2.603000000    -0.306000000     4.523000000
H     3.404000000    -1.559000000     4.805000000
O     0.319000000     2.317000000    -7.380000000
H     1.183000000     1.923000000    -7.503000000
H     0.335000000     2.653000000    -6.484000000
O     0.270000000     2.789000000     1.620000000
H    -0.141000000     3.382000000     0.992000000
H     0.141000000     1.917000000     1.247000000
O    -4.859000000    -1.141000000    -1.453000000
H    -4.130000000    -0.567000000    -1.688000000
H    -5.274000000    -1.356000000    -2.288000000
O     1.721000000     5.196000000     3.827000000
H     1.103000000     4.492000000     4.026000000
H     1.479000000     5.486000000     2.948000000
O     7.527000000     1.373000000     2.266000000
H     7.932000000     0.619000000     2.694000000
H     6.626000000     1.376000000     2.588000000
O    -6.772000000     1.192000000    -4.850000000
H    -5.833000000     1.007000000    -4.858000000
H    -7.093000000     0.835000000    -5.678000000
O     1.474000000    -2.464000000    -1.878000000
H     1.494000000    -1.683000000    -1.325000000
H     2.240000000    -2.376000000    -2.445000000
O     5.266000000     0.222000000    -3.590000000
H     5.981000000     0.838000000    -3.751000000
H     5.383000000    -0.048000000    -2.679000000
O     3.089000000     2.982000000     2.131000000
H     3.505000000     3.415000000     1.385000000
H     2.151000000     3.102000000     1.985000000
O    -3.445000000     3.706000000    -5.409000000
H    -3.577000000     3.072000000    -4.704000000
H    -3.490000000     3.185000000    -6.211000000
O     2.231000000     2.209000000     6.678000000
H     2.833000000     1.842000000     7.326000000
H     2.721000000     2.925000000     6.274000000
O    -2.902000000    -0.902000000    -8.327000000
H    -2.204000000    -1.210000000    -8.906000000
H    -2.473000000    -0.268000000    -7.752000000
O    -2.342000000    -3.584000000    -4.009000000
H    -2.113000000    -3.385000000    -4.917000000
H    -2.747000000    -4.450000000    -4.049000000
O    -4.972000000    -2.502000000    -3.984000000
H    -5.046000000    -2.089000000    -4.845000000
H    -4.041000000    -2.707000000    -3.896000000
O    -0.815000000     4.558000000    -2.690000000
H    -0.769000000     5.089000000    -3.485000000
H    -1.748000000     4.515000000    -2.484000000
O    -4.539000000     2.586000000    -3.024000000
H    -5.395000000     2.527000000    -2.601000000
H    -4.052000000     1.836000000    -2.684000000
O    -7.205000000     0.029000000     0.209000000
H    -6.568000000    -0.395000000    -0.365000000
H    -7.380000000     0.872000000    -0.209000000
O    -0.075000000     2.811000000    -4.689000000
H    -0.380000000     3.454000000    -4.050000000
H    -0.262000000     1.964000000    -4.284000000
O     3.496000000    -2.025000000    -3.859000000
H     2.678000000    -1.652000000    -4.187000000
H     4.133000000    -1.315000000    -3.940000000
O     2.988000000     1.407000000    -5.097000000
H     3.561000000     0.874000000    -4.546000000
H     2.954000000     2.256000000    -4.656000000
O    -3.090000000    -5.346000000     2.768000000
H    -3.761000000    -6.027000000     2.727000000
H    -3.545000000    -4.583000000     3.125000000
O    -4.844000000    -2.100000000     2.521000000
H    -4.451000000    -2.511000000     1.751000000
H    -4.100000000    -1.875000000     3.079000000
O     3.748000000    -5.879000000     0.626000000
H     2.844000000    -5.565000000     0.587000000
H     4.236000000    -5.274000000     0.067000000
O    -0.641000000     2.729000000     4.202000000
H    -0.082000000     2.710000000     3.425000000
H    -1.505000000     2.472000000     3.881000000
O    -1.191000000    -2.467000000    -6.230000000
H    -1.661000000    -1.934000000    -6.871000000
H    -1.093000000    -3.320000000    -6.653000000
O    -6.295000000    -3.167000000     0.038000000
H    -6.166000000    -3.296000000     0.977000000
H    -5.416000000    -3.007000000    -0.305000000
O    -1.304000000    -3.753000000    -1.408000000
H    -0.677000000    -3.033000000    -1.470000000
H    -1.580000000    -3.909000000    -2.311000000
O    -1.855000000     0.513000000    -6.096000000
H    -1.297000000     1.193000000    -6.473000000
H    -1.748000000     0.612000000    -5.150000000
O     0.999000000     5.744000000     1.047000000
H     1.268000000     5.261000000     0.265000000
H     0.364000000     6.384000000     0.727000000
O     3.478000000     2.787000000    -1.628000000
H     2.909000000     3.537000000    -1.457000000
H     4.056000000     3.081000000    -2.332000000
O    -3.341000000    -3.599000000     0.692000000
H    -2.872000000    -3.567000000    -0.142000000
H    -2.772000000    -4.109000000     1.268000000
O    -3.017000000     2.622000000     0.793000000
H    -3.380000000     2.216000000     0.006000000
H    -2.700000000     1.886000000     1.317000000
O     5.858000000    -0.808000000    -0.824000000
H     5.543000000    -1.113000000     0.027000000
H     6.676000000    -1.286000000    -0.962000000
O     4.842000000     1.213000000     3.166000000
H     4.163000000     1.729000000     2.731000000
H     4.361000000     0.641000000     3.765000000
O     0.964000000    -5.829000000    -0.056000000
H     0.518000000    -5.468000000    -0.823000000
H     1.075000000    -5.080000000     0.530000000
O    -1.629000000    -1.160000000     4.374000000
H    -1.670000000    -2.007000000     4.817000000
H    -0.695000000    -0.953000000     4.339000000
O    -3.476000000     5.143000000    -2.313000000
H    -3.951000000     4.464000000    -2.791000000
H    -3.942000000     5.220000000    -1.481000000
O    -4.310000000     0.163000000    -4.989000000
H    -3.545000000     0.323000000    -5.541000000
H    -3.973000000     0.203000000    -4.095000000
O    -1.211000000    -3.762000000     5.706000000
H    -0.826000000    -4.638000000     5.717000000
H    -0.815000000    -3.316000000     6.454000000
O     5.458000000    -1.401000000     1.761000000
H     5.741000000    -2.058000000     2.398000000
H     5.008000000    -0.738000000     2.285000000
O     0.676000000    -1.305000000    -4.752000000
H    -0.083000000    -1.731000000    -5.149000000
H     0.320000000    -0.522000000    -4.332000000
O     6.031000000     2.023000000    -0.642000000
H     6.075000000     1.098000000    -0.398000000
H     5.096000000     2.196000000    -0.756000000
O    -2.875000000     1.273000000     3.851000000
H    -2.492000000     0.469000000     4.202000000
H    -3.402000000     1.622000000     4.569000000
O     1.858000000    -3.981000000     1.989000000
H     2.640000000    -3.669000000     2.444000000
H     1.658000000    -4.820000000     2.403000000
O     1.718000000     4.774000000    -1.598000000
H     0.919000000     4.694000000    -2.119000000
H     1.977000000     5.691000000    -1.695000000
O     0.985000000     0.164000000     5.036000000
H     1.463000000     0.384000000     5.836000000
H     0.482000000     0.952000000     4.834000000
