158
-2969.51638
C     0.663000000     1.012000000    -0.915000000
H     1.221000000     1.795000000    -1.422000000
C     1.117000000     0.651000000     0.357000000
H     2.068000000     1.067000000     0.680000000
C     0.489000000    -0.351000000     1.079000000
H     0.845000000    -0.730000000     2.041000000
C    -0.651000000    -0.971000000     0.531000000
H    -1.205000000    -1.739000000     1.065000000
C    -1.148000000    -0.531000000    -0.695000000
H    -2.037000000    -0.977000000    -1.133000000
C    -0.502000000     0.512000000    -1.385000000
C    -1.128000000     1.125000000    -2.643000000
O    -0.826000000     2.149000000    -3.161000000
O    -2.026000000     0.544000000    -3.139000000
O    -4.183000000     0.985000000     3.441000000
H    -3.298000000     1.017000000     3.077000000
H    -4.203000000     0.173000000     3.948000000
O     0.684000000     6.174000000    -5.784000000
H     0.544000000     5.227000000    -5.798000000
H     0.107000000     6.491000000    -5.089000000
O    -5.632000000    -0.702000000    -1.568000000
H    -4.762000000    -0.649000000    -1.964000000
H    -5.474000000    -1.038000000    -0.686000000
O     3.638000000    -0.285000000     2.987000000
H     3.131000000    -1.085000000     3.133000000
H     3.438000000     0.266000000     3.744000000
O     2.602000000    -0.830000000    -2.794000000
H     3.201000000    -0.251000000    -2.324000000
H     2.339000000    -1.483000000    -2.145000000
O    -1.434000000     0.745000000     3.492000000
H    -0.577000000     0.538000000     3.864000000
H    -1.273000000     0.831000000     2.552000000
O     6.071000000    -1.215000000     1.494000000
H     6.715000000    -0.582000000     1.176000000
H     5.343000000    -0.679000000     1.810000000
O    -1.078000000     2.349000000     1.104000000
H    -0.470000000     1.683000000     0.781000000
H    -0.519000000     2.986000000     1.550000000
O    -1.652000000     7.316000000    -2.999000000
H    -1.690000000     7.296000000    -2.043000000
H    -1.840000000     6.417000000    -3.266000000
O     1.738000000    -2.502000000    -0.746000000
H     2.068000000    -2.700000000     0.130000000
H     0.968000000    -1.953000000    -0.594000000
O     0.676000000     3.593000000    -5.244000000
H     1.274000000     2.858000000    -5.377000000
H     0.140000000     3.333000000    -4.495000000
O    -2.609000000     4.442000000    -0.024000000
H    -2.076000000     3.724000000     0.318000000
H    -2.065000000     4.843000000    -0.701000000
O     0.473000000     4.179000000     2.555000000
H     1.402000000     4.276000000     2.764000000
H     0.277000000     4.922000000     1.984000000
O     2.655000000    -0.733000000     6.408000000
H     2.685000000    -1.068000000     7.304000000
H     3.485000000    -1.011000000     6.021000000
O    -5.014000000     1.451000000    -6.821000000
H    -5.331000000     0.751000000    -6.250000000
H    -4.175000000     1.709000000    -6.440000000
O    -2.046000000    -2.790000000    -6.167000000
H    -2.709000000    -3.476000000    -6.087000000
H    -1.785000000    -2.815000000    -7.088000000
O    -5.930000000    -0.569000000    -4.878000000
H    -5.079000000    -0.845000000    -4.537000000
H    -6.386000000    -1.387000000    -5.075000000
O    -4.264000000     1.978000000    -3.083000000
H    -4.817000000     1.291000000    -3.456000000
H    -3.371000000     1.650000000    -3.189000000
O    -2.335000000    -5.216000000    -0.354000000
H    -3.188000000    -4.793000000    -0.449000000
H    -1.731000000    -4.647000000    -0.830000000
O    -2.646000000     4.968000000    -5.523000000
H    -3.556000000     5.264000000    -5.511000000
H    -2.301000000     5.290000000    -6.356000000
O     4.031000000    -3.912000000     4.557000000
H     4.662000000    -3.227000000     4.777000000
H     3.679000000    -3.650000000     3.707000000
O     6.476000000    -0.016000000     4.047000000
H     5.723000000     0.299000000     3.547000000
H     7.210000000     0.511000000     3.732000000
O    -0.671000000     2.997000000     4.914000000
H    -0.026000000     3.449000000     4.370000000
H    -0.971000000     2.266000000     4.374000000
O    -1.099000000     0.588000000    -8.364000000
H    -0.956000000     0.202000000    -7.500000000
H    -1.242000000    -0.163000000    -8.941000000
O     2.057000000    -5.318000000     1.930000000
H     2.572000000    -5.974000000     1.459000000
H     1.379000000    -5.822000000     2.379000000
O     1.213000000     0.730000000     4.404000000
H     1.955000000     1.268000000     4.679000000
H     1.225000000    -0.018000000     5.000000000
O    -2.910000000    -5.263000000     3.350000000
H    -2.026000000    -5.360000000     2.996000000
H    -2.786000000    -5.222000000     4.298000000
O     1.833000000     0.438000000    -5.185000000
H     1.968000000    -0.048000000    -4.372000000
H     1.011000000     0.094000000    -5.536000000
O     0.790000000    -4.709000000    -2.046000000
H     1.659000000    -5.109000000    -2.088000000
H     0.943000000    -3.844000000    -1.664000000
O    -1.827000000    -0.913000000     5.594000000
H    -2.193000000    -0.408000000     6.320000000
H    -2.001000000    -0.379000000     4.819000000
O    -2.619000000     2.183000000    -5.779000000
H    -2.544000000     3.078000000    -6.109000000
H    -2.101000000     2.181000000    -4.974000000
O     7.289000000     0.987000000     0.104000000
H     7.487000000     1.769000000    -0.412000000
H     6.336000000     0.909000000     0.063000000
O     4.085000000     3.251000000    -4.005000000
H     3.758000000     3.270000000    -3.106000000
H     5.013000000     3.033000000    -3.918000000
O    -4.556000000    -3.744000000    -1.100000000
H    -5.153000000    -3.434000000    -0.419000000
H    -4.810000000    -3.255000000    -1.882000000
O     3.537000000     3.637000000    -1.058000000
H     2.805000000     4.030000000    -1.533000000
H     4.082000000     4.381000000    -0.800000000
O     4.854000000     0.181000000    -1.897000000
H     4.751000000     0.528000000    -1.012000000
H     5.487000000     0.767000000    -2.312000000
O    -4.491000000    -2.493000000     3.279000000
H    -3.945000000    -3.262000000     3.442000000
H    -5.097000000    -2.468000000     4.020000000
O    -0.772000000    -0.392000000    -5.705000000
H    -1.226000000    -1.234000000    -5.739000000
H    -1.092000000     0.020000000    -4.902000000
O    -6.023000000    -1.837000000     1.205000000
H    -5.488000000    -2.074000000     1.962000000
H    -6.911000000    -2.100000000     1.446000000
O    -5.921000000     3.806000000    -3.710000000
H    -5.149000000     3.377000000    -3.343000000
H    -6.661000000     3.370000000    -3.288000000
O    -3.202000000    -1.900000000    -3.904000000
H    -2.774000000    -2.036000000    -4.749000000
H    -2.730000000    -1.166000000    -3.512000000
O    -0.675000000    -2.652000000     3.974000000
H    -1.055000000    -2.032000000     4.597000000
H    -0.799000000    -3.509000000     4.383000000
O     4.218000000     1.573000000     0.496000000
H     3.946000000     2.334000000    -0.017000000
H     3.448000000     1.350000000     1.020000000
O     3.813000000     1.551000000     4.878000000
H     4.341000000     1.626000000     5.673000000
H     4.397000000     1.836000000     4.176000000
O     1.636000000    -5.104000000     4.881000000
H     2.447000000    -4.596000000     4.903000000
H     1.718000000    -5.653000000     4.102000000
O     2.108000000    -2.544000000     2.656000000
H     2.350000000    -3.421000000     2.360000000
H     1.224000000    -2.645000000     3.008000000
O    -1.757000000     4.619000000    -2.714000000
H    -1.365000000     3.761000000    -2.555000000
H    -2.525000000     4.434000000    -3.255000000
O     2.904000000     4.749000000     3.211000000
H     3.168000000     5.533000000     3.692000000
H     3.711000000     4.243000000     3.116000000
