158
-2993.46175
C     0.450000000     0.724000000    -1.137000000
H     0.964000000     1.211000000    -1.961000000
C     1.224000000     0.250000000    -0.065000000
H     2.287000000     0.470000000    -0.026000000
C     0.612000000    -0.485000000     0.946000000
H     1.128000000    -0.787000000     1.824000000
C    -0.760000000    -0.747000000     0.892000000
H    -1.270000000    -1.184000000     1.747000000
C    -1.479000000    -0.244000000    -0.219000000
H    -2.549000000    -0.433000000    -0.224000000
C    -0.888000000     0.507000000    -1.266000000
C    -1.645000000     1.053000000    -2.469000000
O    -1.183000000     2.007000000    -3.111000000
O    -2.723000000     0.605000000    -2.753000000
O     3.717000000     0.708000000     2.345000000
H     3.268000000     1.368000000     2.873000000
H     4.168000000     0.156000000     2.983000000
O    -4.749000000     2.474000000     1.292000000
H    -5.083000000     1.862000000     1.948000000
H    -5.017000000     2.096000000     0.454000000
O    -1.528000000    -0.601000000     5.859000000
H    -2.100000000     0.004000000     5.387000000
H    -1.560000000    -1.409000000     5.348000000
O     1.278000000     5.888000000     0.572000000
H     1.012000000     5.613000000     1.449000000
H     0.921000000     5.216000000    -0.009000000
O    -5.312000000    -0.359000000     0.189000000
H    -4.726000000    -1.102000000     0.334000000
H    -6.191000000    -0.721000000     0.309000000
O    -7.500000000     1.369000000    -2.815000000
H    -6.755000000     1.688000000    -2.307000000
H    -7.655000000     2.052000000    -3.468000000
O     5.251000000    -1.093000000     4.173000000
H     5.047000000    -1.971000000     4.495000000
H     5.206000000    -0.536000000     4.950000000
O     0.647000000    -0.484000000     7.614000000
H    -0.073000000    -0.676000000     7.013000000
H     1.248000000    -1.222000000     7.512000000
O    -5.275000000     4.296000000    -4.435000000
H    -4.704000000     4.461000000    -3.684000000
H    -4.984000000     3.451000000    -4.776000000
O     1.729000000    -2.297000000    -1.692000000
H     1.372000000    -1.515000000    -1.271000000
H     0.991000000    -2.905000000    -1.735000000
O    -2.476000000     1.533000000     4.261000000
H    -1.761000000     1.552000000     3.625000000
H    -3.268000000     1.632000000     3.734000000
O     4.905000000    -2.356000000     1.321000000
H     5.248000000    -1.474000000     1.467000000
H     4.042000000    -2.348000000     1.736000000
O     2.794000000     2.827000000    -3.763000000
H     3.426000000     2.622000000    -3.074000000
H     2.708000000     3.780000000    -3.734000000
O     5.055000000     1.938000000    -2.333000000
H     5.816000000     2.398000000    -2.687000000
H     5.422000000     1.302000000    -1.720000000
O    -4.001000000     1.910000000    -4.864000000
H    -3.711000000     1.786000000    -5.768000000
H    -3.608000000     1.181000000    -4.384000000
O    -2.189000000    -2.256000000    -6.005000000
H    -1.398000000    -1.808000000    -5.704000000
H    -2.168000000    -2.165000000    -6.958000000
O    -6.555000000    -1.811000000    -3.568000000
H    -6.768000000    -0.879000000    -3.516000000
H    -5.603000000    -1.844000000    -3.477000000
O    -3.450000000     6.418000000    -1.664000000
H    -3.099000000     5.538000000    -1.798000000
H    -4.382000000     6.281000000    -1.494000000
O    -4.986000000     1.527000000    -1.523000000
H    -5.050000000     0.825000000    -0.876000000
H    -4.149000000     1.373000000    -1.961000000
O     0.779000000     1.237000000    -8.212000000
H     0.023000000     1.725000000    -8.538000000
H     0.711000000     1.298000000    -7.260000000
O     0.831000000     3.772000000    -5.569000000
H     0.916000000     3.930000000    -4.629000000
H     0.393000000     2.923000000    -5.630000000
O     3.398000000    -1.372000000    -6.067000000
H     2.719000000    -1.495000000    -6.731000000
H     3.031000000    -0.721000000    -5.468000000
O     0.096000000     2.251000000     6.115000000
H    -0.633000000     2.360000000     5.505000000
H    -0.146000000     1.492000000     6.644000000
O     1.847000000     0.232000000    -4.554000000
H     1.995000000     1.152000000    -4.338000000
H     0.900000000     0.163000000    -4.673000000
O     0.042000000    -6.049000000     2.697000000
H     0.924000000    -6.214000000     3.031000000
H    -0.501000000    -6.720000000     3.112000000
O    -0.600000000     6.009000000    -6.716000000
H    -1.256000000     5.945000000    -7.410000000
H    -0.427000000     5.102000000    -6.465000000
O     4.234000000    -1.486000000    -2.059000000
H     4.294000000    -0.806000000    -1.388000000
H     3.304000000    -1.712000000    -2.089000000
O     4.258000000    -5.786000000     0.491000000
H     3.687000000    -5.406000000     1.160000000
H     4.027000000    -5.321000000    -0.313000000
O    -3.297000000    -4.371000000    -3.411000000
H    -3.582000000    -3.458000000    -3.439000000
H    -2.349000000    -4.330000000    -3.535000000
O    -0.653000000     1.471000000    -5.641000000
H    -1.429000000     1.811000000    -6.087000000
H    -0.829000000     1.615000000    -4.711000000
O     1.538000000     5.265000000    -3.093000000
H     1.124000000     4.918000000    -2.303000000
H     0.973000000     5.990000000    -3.361000000
O    -4.883000000    -2.913000000     1.058000000
H    -4.776000000    -3.766000000     1.480000000
H    -5.567000000    -3.054000000     0.404000000
O    -0.367000000     1.849000000     2.457000000
H     0.554000000     1.928000000     2.706000000
H    -0.371000000     1.191000000     1.762000000
O     7.062000000    -0.668000000     2.374000000
H     6.445000000    -1.114000000     2.954000000
H     6.976000000     0.258000000     2.598000000
O     4.497000000     3.381000000     0.115000000
H     4.925000000     3.372000000    -0.741000000
H     4.550000000     2.475000000     0.419000000
O     1.852000000    -4.531000000     1.144000000
H     2.343000000    -4.000000000     1.770000000
H     1.209000000    -4.998000000     1.677000000
O    -0.358000000    -3.050000000     3.420000000
H    -0.188000000    -3.822000000     2.879000000
H     0.435000000    -2.947000000     3.946000000
O     1.110000000    -5.411000000    -1.358000000
H     0.960000000    -6.320000000    -1.098000000
H     1.395000000    -4.976000000    -0.555000000
O    -4.916000000     0.248000000     3.141000000
H    -4.219000000    -0.384000000     2.966000000
H    -5.042000000     0.209000000     4.089000000
O    -2.841000000     3.837000000    -2.177000000
H    -3.430000000     3.315000000    -1.631000000
H    -2.433000000     3.201000000    -2.764000000
O    -3.647000000    -1.734000000    -3.703000000
H    -3.464000000    -1.650000000    -4.639000000
H    -3.317000000    -0.922000000    -3.320000000
O     1.535000000    -3.498000000     5.439000000
H     0.777000000    -3.810000000     5.934000000
H     1.974000000    -2.889000000     6.034000000
O     5.256000000     0.723000000     0.067000000
H     6.175000000     0.771000000     0.329000000
H     4.775000000     0.646000000     0.891000000
O    -0.332000000    -1.617000000    -4.000000000
H     0.601000000    -1.802000000    -3.892000000
H    -0.742000000    -2.480000000    -4.061000000
O    -3.090000000    -2.292000000     2.988000000
H    -2.165000000    -2.539000000     3.004000000
H    -3.369000000    -2.465000000     2.089000000
O     3.025000000    -3.403000000     3.292000000
H     2.979000000    -4.359000000     3.257000000
H     2.755000000    -3.183000000     4.184000000
O     0.268000000     3.998000000    -1.011000000
H     0.458000000     3.202000000    -0.514000000
H    -0.429000000     3.742000000    -1.615000000
O     2.110000000     2.269000000     4.062000000
H     2.604000000     3.072000000     3.899000000
H     1.726000000     2.396000000     4.930000000
