158
-3069.34594
C     0.953000000    -0.449000000    -1.057000000
H     1.704000000    -0.781000000    -1.769000000
C     1.392000000    -0.193000000     0.267000000
H     2.401000000    -0.392000000     0.618000000
C     0.415000000     0.257000000     1.151000000
H     0.551000000     0.536000000     2.158000000
C    -0.931000000     0.424000000     0.734000000
H    -1.673000000     0.754000000     1.457000000
C    -1.343000000     0.135000000    -0.542000000
H    -2.392000000     0.226000000    -0.812000000
C    -0.410000000    -0.298000000    -1.491000000
C    -0.924000000    -0.689000000    -2.908000000
O    -0.160000000    -1.372000000    -3.518000000
O    -2.094000000    -0.376000000    -3.262000000
O    -0.554000000    -3.763000000    -2.379000000
H    -0.373000000    -2.900000000    -2.752000000
H    -0.451000000    -3.642000000    -1.435000000
O     2.058000000     1.794000000     4.871000000
H     2.754000000     1.842000000     4.215000000
H     1.249000000     1.887000000     4.368000000
O    -5.975000000    -2.689000000    -6.215000000
H    -6.229000000    -3.288000000    -5.514000000
H    -5.106000000    -2.379000000    -5.962000000
O     1.488000000    -0.309000000    -6.870000000
H     2.288000000    -0.229000000    -7.389000000
H     0.810000000     0.094000000    -7.413000000
O     5.863000000     0.572000000     1.631000000
H     5.522000000     1.311000000     1.127000000
H     5.721000000    -0.188000000     1.067000000
O     1.644000000     3.314000000     1.953000000
H     2.398000000     2.736000000     2.072000000
H     1.006000000     3.011000000     2.599000000
O    -3.278000000    -3.763000000    -0.840000000
H    -3.094000000    -4.686000000    -1.015000000
H    -3.635000000    -3.430000000    -1.663000000
O    -2.948000000    -5.340000000    -3.632000000
H    -3.362000000    -5.882000000    -2.961000000
H    -2.249000000    -4.877000000    -3.169000000
O    -0.901000000     4.643000000     5.232000000
H    -0.301000000     5.285000000     4.853000000
H    -0.616000000     3.805000000     4.869000000
O    -3.198000000    -2.853000000     1.590000000
H    -3.305000000    -3.036000000     0.657000000
H    -4.011000000    -2.414000000     1.842000000
O    -6.163000000    -2.904000000    -2.471000000
H    -6.978000000    -2.404000000    -2.518000000
H    -5.513000000    -2.340000000    -2.890000000
O    -5.393000000     1.263000000     1.731000000
H    -4.713000000     0.751000000     2.168000000
H    -5.849000000     0.630000000     1.176000000
O     0.068000000     3.023000000    -0.721000000
H     0.388000000     3.234000000     0.156000000
H     0.482000000     2.186000000    -0.932000000
O     2.845000000     1.718000000    -2.351000000
H     2.471000000     1.084000000    -2.963000000
H     3.699000000     1.936000000    -2.723000000
O    -0.346000000    -2.896000000     0.593000000
H     0.025000000    -2.014000000     0.602000000
H    -1.268000000    -2.770000000     0.819000000
O    -4.972000000     1.957000000    -4.648000000
H    -4.813000000     1.104000000    -4.243000000
H    -5.907000000     1.954000000    -4.852000000
O    -4.525000000     1.219000000    -7.621000000
H    -3.849000000     1.030000000    -6.971000000
H    -4.654000000     0.389000000    -8.081000000
O    -1.256000000     4.895000000    -2.522000000
H    -0.559000000     5.525000000    -2.706000000
H    -0.803000000     4.140000000    -2.147000000
O     3.901000000     2.283000000     2.875000000
H     4.493000000     1.536000000     2.967000000
H     4.474000000     3.017000000     2.656000000
O    -0.255000000     2.524000000     3.604000000
H    -0.934000000     2.899000000     3.043000000
H    -0.588000000     1.658000000     3.836000000
O    -2.790000000    -3.158000000    -5.849000000
H    -3.235000000    -3.474000000    -6.635000000
H    -1.869000000    -3.380000000    -5.989000000
O     1.822000000     4.054000000    -3.445000000
H     1.816000000     3.249000000    -2.927000000
H     1.655000000     3.762000000    -4.342000000
O    -1.763000000     4.035000000     1.896000000
H    -1.224000000     4.548000000     1.294000000
H    -2.531000000     3.790000000     1.380000000
O     2.090000000     5.982000000     1.462000000
H     1.954000000     6.087000000     0.520000000
H     1.799000000     5.090000000     1.648000000
O    -0.935000000     0.518000000    -8.189000000
H    -0.939000000     1.474000000    -8.139000000
H    -1.399000000     0.235000000    -7.401000000
O    -3.525000000     3.094000000    -2.234000000
H    -2.898000000     3.758000000    -2.520000000
H    -3.497000000     2.428000000    -2.921000000
O    -0.709000000     0.209000000     5.126000000
H     0.122000000    -0.250000000     5.248000000
H    -1.254000000    -0.408000000     4.638000000
O     6.861000000     0.266000000    -1.478000000
H     7.051000000     0.264000000    -2.416000000
H     6.024000000    -0.191000000    -1.402000000
O     3.173000000    -3.438000000    -6.282000000
H     3.080000000    -4.066000000    -6.999000000
H     2.275000000    -3.194000000    -6.059000000
O    -3.803000000    -2.434000000    -3.546000000
H    -3.242000000    -1.672000000    -3.401000000
H    -3.370000000    -2.921000000    -4.247000000
O     4.399000000    -1.023000000    -2.097000000
H     3.849000000    -0.242000000    -2.157000000
H     4.397000000    -1.385000000    -2.983000000
O    -0.265000000    -3.766000000    -8.057000000
H    -0.437000000    -4.595000000    -7.611000000
H     0.011000000    -3.172000000    -7.359000000
O    -4.528000000     0.136000000    -2.570000000
H    -3.577000000     0.035000000    -2.528000000
H    -4.856000000    -0.378000000    -1.832000000
O     4.005000000     2.247000000     0.002000000
H     3.385000000     2.258000000    -0.727000000
H     3.769000000     3.009000000     0.530000000
O     1.430000000    -5.652000000    -2.830000000
H     0.783000000    -4.948000000    -2.876000000
H     0.978000000    -6.415000000    -3.192000000
O     2.156000000    -0.263000000    -4.150000000
H     1.361000000    -0.767000000    -3.976000000
H     2.314000000    -0.381000000    -5.087000000
O     1.363000000    -1.221000000     5.642000000
H     1.844000000    -0.410000000     5.477000000
H     1.198000000    -1.214000000     6.585000000
O    -6.294000000    -0.697000000    -0.461000000
H    -6.450000000    -1.364000000     0.207000000
H    -7.053000000    -0.757000000    -1.041000000
O    -1.755000000    -1.757000000     3.724000000
H    -1.213000000    -2.343000000     4.253000000
H    -1.987000000    -2.275000000     2.954000000
O     0.343000000    -2.425000000    -5.712000000
H     0.015000000    -2.327000000    -4.818000000
H     0.496000000    -1.528000000    -6.010000000
O    -4.188000000     3.524000000     0.507000000
H    -4.665000000     2.765000000     0.843000000
H    -4.020000000     3.313000000    -0.411000000
O    -4.730000000    -1.469000000     3.288000000
H    -3.932000000    -1.296000000     3.788000000
H    -5.368000000    -1.749000000     3.945000000
O    -2.242000000    -0.274000000    -5.756000000
H    -2.345000000    -1.218000000    -5.877000000
H    -1.990000000    -0.176000000    -4.838000000
O     1.743000000     2.880000000     7.649000000
H     0.844000000     2.560000000     7.584000000
H     2.028000000     2.981000000     6.740000000
O    -1.089000000     1.769000000     7.510000000
H    -1.064000000     1.363000000     6.643000000
H    -1.867000000     2.327000000     7.490000000
O     2.855000000    -3.790000000     4.772000000
H     3.596000000    -3.186000000     4.823000000
H     2.106000000    -3.275000000     5.072000000
O     5.156000000    -1.886000000     0.468000000
H     5.207000000    -2.782000000     0.136000000
H     4.574000000    -1.436000000    -0.145000000
O    -2.494000000     2.830000000    -5.329000000
H    -1.980000000     2.022000000    -5.319000000
H    -3.404000000     2.534000000    -5.326000000
