158
-3018.44106
C     0.604000000    -1.291000000    -0.165000000
H     1.046000000    -2.283000000    -0.141000000
C     0.214000000    -0.748000000     0.995000000
H     0.364000000    -1.294000000     1.923000000
C    -0.468000000     0.415000000     1.047000000
H    -0.888000000     0.895000000     1.977000000
C    -0.633000000     1.164000000    -0.110000000
H    -1.210000000     2.085000000    -0.087000000
C    -0.111000000     0.695000000    -1.321000000
H    -0.277000000     1.271000000    -2.228000000
C     0.571000000    -0.555000000    -1.361000000
C     1.011000000    -1.202000000    -2.657000000
O     1.033000000    -0.530000000    -3.684000000
O     1.327000000    -2.394000000    -2.673000000
O     6.207000000    -3.113000000    -3.405000000
H     5.570000000    -3.377000000    -2.742000000
H     6.565000000    -2.287000000    -3.078000000
O    -5.604000000     2.316000000    -1.554000000
H    -6.110000000     3.083000000    -1.283000000
H    -5.300000000     1.928000000    -0.734000000
O     0.288000000     5.360000000    -1.316000000
H     0.580000000     4.894000000    -0.532000000
H     0.051000000     6.232000000    -1.001000000
O    -4.466000000    -2.517000000    -0.306000000
H    -3.538000000    -2.497000000    -0.538000000
H    -4.881000000    -1.918000000    -0.926000000
O     0.421000000    -7.294000000    -3.438000000
H     0.302000000    -6.952000000    -4.324000000
H     0.915000000    -6.612000000    -2.983000000
O    -0.159000000     1.194000000     4.308000000
H    -0.307000000     0.299000000     4.004000000
H     0.413000000     1.097000000     5.069000000
O    -3.565000000    -1.380000000     2.165000000
H    -3.600000000    -1.774000000     1.294000000
H    -4.352000000    -1.701000000     2.605000000
O     2.003000000    -3.233000000    -5.388000000
H     2.023000000    -3.122000000    -4.437000000
H     2.306000000    -2.393000000    -5.733000000
O     4.775000000     2.613000000    -5.416000000
H     4.014000000     2.449000000    -4.859000000
H     4.863000000     3.566000000    -5.427000000
O    -1.343000000    -0.926000000    -5.166000000
H    -0.809000000    -1.337000000    -5.846000000
H    -0.783000000    -0.924000000    -4.390000000
O     1.570000000     4.537000000     2.871000000
H     2.240000000     4.197000000     2.278000000
H     1.817000000     5.450000000     3.014000000
O    -1.623000000    -3.058000000     2.866000000
H    -2.245000000    -3.772000000     3.006000000
H    -2.171000000    -2.296000000     2.676000000
O    -1.349000000    -4.943000000     0.194000000
H    -1.581000000    -4.198000000    -0.361000000
H    -1.081000000    -4.549000000     1.024000000
O     2.358000000     1.480000000     2.391000000
H     2.029000000     1.038000000     1.608000000
H     1.705000000     1.292000000     3.065000000
O     3.342000000    -6.460000000    -4.588000000
H     3.324000000    -5.988000000    -3.755000000
H     2.535000000    -6.197000000    -5.030000000
O    -0.849000000     0.282000000    -8.508000000
H    -0.377000000    -0.326000000    -9.076000000
H    -0.879000000    -0.156000000    -7.658000000
O    -0.795000000     3.889000000     3.941000000
H     0.008000000     4.083000000     3.458000000
H    -0.636000000     3.031000000     4.334000000
O     2.416000000    -3.487000000     2.471000000
H     1.755000000    -2.972000000     2.934000000
H     1.999000000    -4.336000000     2.323000000
O     4.063000000    -2.333000000     0.310000000
H     3.408000000    -2.605000000     0.953000000
H     4.322000000    -1.455000000     0.588000000
O    -2.202000000     0.114000000     6.747000000
H    -2.151000000     1.069000000     6.701000000
H    -1.986000000    -0.180000000     5.862000000
O    -1.430000000     6.135000000     2.924000000
H    -2.302000000     6.013000000     2.548000000
H    -1.207000000     5.281000000     3.294000000
O    -3.989000000     1.050000000     0.889000000
H    -3.681000000     0.228000000     1.270000000
H    -3.796000000     1.710000000     1.555000000
O     3.430000000     3.296000000     4.430000000
H     3.325000000     4.248000000     4.428000000
H     2.857000000     2.991000000     3.727000000
O     3.715000000    -0.208000000     6.181000000
H     4.360000000     0.097000000     5.543000000
H     2.983000000    -0.522000000     5.650000000
O     4.992000000    -3.606000000     3.556000000
H     5.525000000    -2.954000000     3.100000000
H     4.106000000    -3.466000000     3.223000000
O     2.874000000     5.115000000    -2.311000000
H     2.879000000     4.374000000    -1.705000000
H     1.975000000     5.444000000    -2.278000000
O     0.960000000    -5.787000000     2.690000000
H     0.403000000    -5.921000000     3.456000000
H     0.675000000    -6.456000000     2.067000000
O    -3.587000000     1.741000000    -5.293000000
H    -3.618000000     2.591000000    -4.855000000
H    -2.815000000     1.310000000    -4.925000000
O     0.966000000    -5.720000000    -5.717000000
H     1.336000000    -5.744000000    -6.600000000
H     1.184000000    -4.847000000    -5.390000000
O     0.119000000    -1.542000000     4.528000000
H    -0.523000000    -2.108000000     4.101000000
H     0.506000000    -2.092000000     5.210000000
O     1.871000000    -5.224000000    -2.441000000
H     1.461000000    -4.368000000    -2.318000000
H     2.452000000    -5.322000000    -1.687000000
O     4.096000000    -1.433000000    -7.831000000
H     3.455000000    -0.992000000    -7.273000000
H     4.394000000    -2.179000000    -7.310000000
O     4.058000000    -3.433000000    -2.084000000
H     3.209000000    -3.034000000    -2.276000000
H     4.322000000    -3.046000000    -1.250000000
O    -2.254000000     2.844000000     6.699000000
H    -2.307000000     3.190000000     7.590000000
H    -2.480000000     3.587000000     6.139000000
O    -0.088000000     3.474000000    -3.153000000
H    -0.553000000     3.839000000    -3.906000000
H     0.006000000     4.211000000    -2.550000000
O    -3.542000000     3.531000000    -3.021000000
H    -4.178000000     3.031000000    -2.509000000
H    -2.694000000     3.156000000    -2.782000000
O     0.540000000     4.162000000     6.876000000
H    -0.297000000     3.977000000     6.450000000
H     1.078000000     3.392000000     6.693000000
O     4.767000000     0.035000000     1.190000000
H     4.306000000     0.386000000     1.952000000
H     4.704000000     0.729000000     0.533000000
O     3.972000000     1.442000000    -1.301000000
H     4.886000000     1.455000000    -1.586000000
H     3.468000000     1.509000000    -2.112000000
O     2.637000000    -0.336000000    -5.781000000
H     2.824000000     0.603000000    -5.806000000
H     2.185000000    -0.468000000    -4.948000000
O     2.573000000     1.889000000    -3.820000000
H     2.149000000     1.031000000    -3.813000000
H     1.853000000     2.513000000    -3.724000000
O    -3.207000000     3.200000000     2.853000000
H    -3.499000000     4.098000000     2.697000000
H    -2.402000000     3.295000000     3.362000000
O    -0.461000000    -2.834000000    -6.938000000
H     0.052000000    -3.245000000    -6.243000000
H    -0.107000000    -3.204000000    -7.747000000
O     1.312000000     1.543000000     6.631000000
H     2.181000000     1.280000000     6.935000000
H     0.811000000     1.688000000     7.434000000
O    -3.175000000     0.923000000    -1.668000000
H    -2.221000000     0.919000000    -1.593000000
H    -3.486000000     1.011000000    -0.767000000
O    -4.503000000     1.441000000     4.519000000
H    -4.196000000     1.709000000     5.385000000
H    -4.277000000     2.175000000     3.947000000
O     4.898000000    -5.987000000    -1.431000000
H     5.474000000    -5.968000000    -0.666000000
H     4.683000000    -5.068000000    -1.591000000
O    -1.955000000    -2.955000000    -1.522000000
H    -2.277000000    -2.944000000    -2.423000000
H    -1.029000000    -2.726000000    -1.595000000
