158
-3042.80922
C     0.769000000    -1.291000000    -0.107000000
H     1.433000000    -2.148000000    -0.041000000
C     0.695000000    -0.449000000     1.042000000
H     1.418000000    -0.521000000     1.850000000
C    -0.193000000     0.597000000     1.089000000
H    -0.290000000     1.229000000     1.908000000
C    -0.992000000     0.812000000    -0.053000000
H    -1.634000000     1.688000000    -0.040000000
C    -0.940000000     0.055000000    -1.196000000
H    -1.575000000     0.386000000    -2.014000000
C    -0.042000000    -1.029000000    -1.222000000
C     0.353000000    -1.554000000    -2.625000000
O     1.039000000    -2.505000000    -2.754000000
O    -0.153000000    -1.039000000    -3.614000000
O    -4.803000000     1.912000000     0.300000000
H    -4.582000000     1.007000000     0.520000000
H    -4.744000000     1.947000000    -0.655000000
O    -5.572000000     3.486000000    -2.379000000
H    -5.518000000     2.565000000    -2.632000000
H    -5.860000000     3.937000000    -3.173000000
O    -1.975000000     3.473000000     2.457000000
H    -2.202000000     2.549000000     2.565000000
H    -2.437000000     3.742000000     1.663000000
O     2.909000000     3.006000000     6.735000000
H     2.263000000     2.856000000     6.045000000
H     3.575000000     2.334000000     6.590000000
O    -0.211000000    -5.719000000    -6.370000000
H    -0.911000000    -5.497000000    -6.983000000
H    -0.125000000    -4.945000000    -5.814000000
O    -2.477000000    -1.895000000     1.197000000
H    -2.741000000    -2.781000000     0.948000000
H    -1.558000000    -1.837000000     0.937000000
O    -3.112000000     0.702000000     5.785000000
H    -2.796000000     1.480000000     6.243000000
H    -2.426000000     0.049000000     5.922000000
O    -0.686000000    -3.606000000    -4.794000000
H    -0.268000000    -2.850000000    -4.381000000
H    -1.469000000    -3.247000000    -5.213000000
O    -2.640000000     3.861000000    -0.391000000
H    -2.639000000     3.679000000    -1.331000000
H    -3.380000000     4.455000000    -0.262000000
O     4.403000000    -0.429000000     2.478000000
H     3.729000000    -0.580000000     3.141000000
H     4.481000000    -1.267000000     2.021000000
O     0.211000000     4.472000000     4.703000000
H    -0.411000000     4.607000000     3.989000000
H     0.661000000     3.658000000     4.478000000
O    -4.967000000    -0.605000000     1.114000000
H    -4.091000000    -0.941000000     1.301000000
H    -5.554000000    -1.184000000     1.599000000
O     4.174000000    -2.805000000     1.431000000
H     4.786000000    -3.135000000     2.088000000
H     3.431000000    -3.408000000     1.471000000
O    -5.445000000     2.694000000     3.530000000
H    -5.167000000     3.308000000     2.851000000
H    -4.689000000     2.123000000     3.662000000
O    -4.532000000     2.416000000    -5.722000000
H    -5.278000000     2.227000000    -6.291000000
H    -4.664000000     1.853000000    -4.959000000
O    -0.324000000     1.532000000    -3.979000000
H     0.092000000     1.811000000    -3.163000000
H    -0.157000000     0.590000000    -4.023000000
O     0.650000000     3.095000000    -1.793000000
H     1.173000000     3.853000000    -2.055000000
H     1.251000000     2.557000000    -1.277000000
O     1.753000000    -0.686000000    -5.511000000
H     1.348000000    -1.030000000    -4.715000000
H     1.255000000     0.106000000    -5.710000000
O    -1.796000000     3.711000000    -2.847000000
H    -1.030000000     3.639000000    -2.277000000
H    -1.843000000     2.864000000    -3.292000000
O     4.478000000    -1.376000000    -0.989000000
H     4.381000000    -1.657000000    -0.079000000
H     4.942000000    -0.540000000    -0.934000000
O    -0.425000000    -6.117000000    -3.228000000
H    -0.838000000    -5.353000000    -3.629000000
H    -1.155000000    -6.690000000    -2.995000000
O    -5.558000000     4.583000000     1.204000000
H    -5.739000000     5.101000000     0.420000000
H    -5.421000000     3.694000000     0.877000000
O    -0.635000000    -0.681000000     6.506000000
H    -0.058000000    -0.390000000     7.212000000
H    -0.044000000    -1.058000000     5.854000000
O     0.392000000     1.709000000    -6.654000000
H     0.169000000     1.754000000    -5.724000000
H     1.131000000     2.310000000    -6.752000000
O     3.466000000     2.232000000    -3.660000000
H     3.409000000     1.278000000    -3.604000000
H     4.311000000     2.445000000    -3.265000000
O    -3.988000000    -4.619000000    -3.364000000
H    -4.078000000    -3.916000000    -2.720000000
H    -3.309000000    -4.311000000    -3.963000000
O     1.142000000    -4.876000000    -1.261000000
H     0.738000000    -5.546000000    -1.812000000
H     0.959000000    -4.052000000    -1.713000000
O     2.363000000    -6.574000000    -3.763000000
H     1.675000000    -7.222000000    -3.916000000
H     1.966000000    -5.740000000    -4.012000000
O    -2.914000000    -2.477000000    -6.033000000
H    -2.943000000    -2.496000000    -6.990000000
H    -3.828000000    -2.559000000    -5.764000000
O    -0.570000000    -4.789000000     3.061000000
H     0.302000000    -4.482000000     2.815000000
H    -0.974000000    -5.052000000     2.234000000
O     0.814000000    -2.403000000     5.178000000
H    -0.027000000    -2.807000000     4.963000000
H     1.370000000    -3.135000000     5.444000000
O     2.685000000     1.052000000    -0.821000000
H     3.121000000     0.491000000    -1.463000000
H     1.968000000     0.516000000    -0.482000000
O    -2.868000000     0.921000000     3.138000000
H    -2.320000000     0.227000000     2.772000000
H    -3.213000000     0.551000000     3.950000000
O    -2.300000000     5.130000000     6.344000000
H    -2.384000000     4.266000000     5.939000000
H    -1.392000000     5.383000000     6.181000000
O     4.313000000    -3.881000000    -2.789000000
H     3.860000000    -3.847000000    -3.632000000
H     3.738000000    -3.406000000    -2.189000000
O     1.585000000     2.168000000     3.981000000
H     1.892000000     1.279000000     4.158000000
H     1.945000000     2.380000000     3.120000000
O     2.794000000     5.142000000     5.052000000
H     1.894000000     5.130000000     4.726000000
H     2.751000000     4.688000000     5.893000000
O    -5.008000000    -2.623000000    -1.772000000
H    -4.528000000    -1.833000000    -2.019000000
H    -5.830000000    -2.299000000    -1.405000000
O    -0.532000000     5.523000000     0.701000000
H    -0.788000000     4.604000000     0.632000000
H    -0.965000000     5.834000000     1.496000000
O     3.341000000     1.980000000     1.739000000
H     3.780000000     1.156000000     1.950000000
H     3.129000000     1.907000000     0.808000000
O     2.211000000    -3.784000000    -4.576000000
H     1.671000000    -3.886000000    -5.360000000
H     1.617000000    -3.414000000    -3.923000000
O     4.043000000    -0.466000000    -3.891000000
H     3.573000000    -0.823000000    -4.644000000
H     4.171000000    -1.217000000    -3.310000000
O    -5.519000000     1.001000000    -3.289000000
H    -4.912000000     0.279000000    -3.452000000
H    -6.340000000     0.573000000    -3.045000000
O     2.005000000    -4.496000000     1.608000000
H     2.377000000    -5.368000000     1.743000000
H     1.840000000    -4.449000000     0.666000000
O     4.773000000     3.660000000     3.430000000
H     4.173000000     4.202000000     3.942000000
H     4.203000000     3.144000000     2.859000000
O     2.604000000    -0.510000000     4.459000000
H     2.226000000    -1.342000000     4.743000000
H     2.933000000    -0.109000000     5.263000000
O     2.246000000     5.876000000     1.313000000
H     1.316000000     6.007000000     1.124000000
H     2.333000000     4.932000000     1.444000000
O    -2.805000000    -0.712000000    -3.877000000
H    -1.856000000    -0.833000000    -3.844000000
H    -3.042000000    -0.921000000    -4.780000000
