158
-3019.54389
C    -0.068000000    -1.040000000     1.008000000
H     0.023000000    -1.674000000     1.885000000
C     0.994000000    -0.200000000     0.795000000
H     1.844000000    -0.156000000     1.471000000
C     0.904000000     0.795000000    -0.171000000
H     1.739000000     1.418000000    -0.230000000
C    -0.222000000     0.940000000    -0.974000000
H    -0.433000000     1.776000000    -1.635000000
C    -1.206000000    -0.057000000    -0.900000000
H    -1.995000000    -0.044000000    -1.648000000
C    -1.153000000    -1.061000000     0.098000000
C    -2.218000000    -2.079000000     0.175000000
O    -2.140000000    -2.992000000     1.012000000
O    -3.108000000    -2.172000000    -0.610000000
O    -2.129000000    -2.291000000     3.581000000
H    -2.109000000    -2.534000000     2.655000000
H    -1.815000000    -3.071000000     4.039000000
O    -5.628000000    -2.049000000    -5.175000000
H    -5.116000000    -2.343000000    -4.422000000
H    -6.391000000    -2.627000000    -5.186000000
O    -5.501000000    -1.175000000    -0.781000000
H    -4.674000000    -1.628000000    -0.618000000
H    -5.279000000    -0.493000000    -1.416000000
O    -5.475000000    -0.790000000     2.193000000
H    -6.390000000    -1.064000000     2.255000000
H    -4.978000000    -1.607000000     2.226000000
O    -2.055000000    -1.225000000    -5.226000000
H    -2.513000000    -1.640000000    -4.496000000
H    -1.216000000    -0.948000000    -4.857000000
O    -1.908000000     3.110000000     1.013000000
H    -2.514000000     2.390000000     1.193000000
H    -1.080000000     2.828000000     1.400000000
O     2.685000000    -3.802000000     0.134000000
H     1.822000000    -4.197000000     0.007000000
H     3.292000000    -4.415000000    -0.283000000
O     4.527000000     0.803000000     1.085000000
H     4.759000000     0.788000000     2.013000000
H     4.420000000     1.732000000     0.880000000
O    -4.693000000     0.734000000    -2.636000000
H    -4.116000000     1.415000000    -2.292000000
H    -5.479000000     1.204000000    -2.915000000
O     4.550000000    -0.280000000    -1.615000000
H     4.022000000     0.367000000    -2.084000000
H     4.689000000     0.106000000    -0.750000000
O     3.717000000     3.456000000     0.612000000
H     3.579000000     3.955000000     1.417000000
H     3.925000000     4.118000000    -0.048000000
O    -3.799000000    -1.871000000     5.630000000
H    -4.218000000    -2.730000000     5.673000000
H    -3.369000000    -1.857000000     4.775000000
O     4.588000000    -1.963000000    -3.911000000
H     4.396000000    -1.230000000    -3.327000000
H     4.288000000    -1.670000000    -4.771000000
O    -3.134000000     2.629000000    -1.690000000
H    -3.799000000     3.214000000    -1.327000000
H    -2.475000000     2.557000000    -1.000000000
O    -3.887000000    -1.672000000    -3.139000000
H    -3.571000000    -1.977000000    -2.288000000
H    -4.187000000    -0.778000000    -2.976000000
O    -4.355000000    -4.516000000    -0.091000000
H    -3.943000000    -3.659000000     0.023000000
H    -5.284000000    -4.359000000     0.074000000
O     7.088000000    -0.330000000    -2.119000000
H     7.152000000     0.268000000    -2.864000000
H     6.151000000    -0.375000000    -1.928000000
O    -3.704000000     1.155000000     1.653000000
H    -3.208000000     1.042000000     2.464000000
H    -4.301000000     0.407000000     1.632000000
O     3.136000000     1.481000000    -2.978000000
H     2.300000000     1.912000000    -3.158000000
H     3.785000000     2.182000000    -3.044000000
O     0.219000000    -0.248000000    -3.796000000
H     0.689000000    -0.750000000    -3.131000000
H     0.111000000     0.621000000    -3.409000000
O     1.375000000    -4.606000000     2.981000000
H     1.103000000    -5.495000000     3.210000000
H     1.122000000    -4.508000000     2.063000000
O     1.556000000    -2.347000000    -2.394000000
H     2.006000000    -3.055000000    -2.856000000
H     2.154000000    -2.106000000    -1.686000000
O    -2.764000000    -5.801000000     2.768000000
H    -2.340000000    -6.341000000     2.101000000
H    -3.066000000    -5.026000000     2.293000000
O    -6.981000000    -3.665000000    -2.333000000
H    -7.143000000    -4.064000000    -3.187000000
H    -7.156000000    -4.366000000    -1.704000000
O    -0.067000000    -4.711000000     0.261000000
H    -0.786000000    -4.104000000     0.440000000
H    -0.198000000    -4.976000000    -0.649000000
O    -4.146000000    -4.847000000    -3.236000000
H    -4.097000000    -5.128000000    -2.322000000
H    -4.072000000    -3.894000000    -3.198000000
O    -3.989000000    -6.978000000    -0.699000000
H    -3.906000000    -6.068000000    -0.414000000
H    -4.909000000    -7.194000000    -0.547000000
O     5.259000000     1.207000000     4.090000000
H     4.717000000     1.652000000     4.742000000
H     6.136000000     1.198000000     4.474000000
O     6.399000000     3.546000000     2.179000000
H     6.000000000     3.348000000     3.026000000
H     6.630000000     2.691000000     1.817000000
O    -1.118000000    -4.666000000     4.807000000
H    -1.312000000    -5.199000000     5.578000000
H    -1.532000000    -5.133000000     4.082000000
O     1.091000000    -1.455000000     5.984000000
H     0.695000000    -2.250000000     6.341000000
H     1.521000000    -1.743000000     5.178000000
O     3.640000000     5.780000000    -3.671000000
H     2.689000000     5.697000000    -3.729000000
H     3.883000000     6.293000000    -4.441000000
O    -7.906000000    -1.658000000    -0.501000000
H    -7.027000000    -1.328000000    -0.685000000
H    -7.883000000    -2.572000000    -0.786000000
O    -2.055000000     5.461000000    -0.588000000
H    -1.147000000     5.761000000    -0.627000000
H    -2.081000000     4.875000000     0.168000000
O    -1.023000000    -3.170000000    -3.087000000
H    -0.075000000    -3.086000000    -3.189000000
H    -1.222000000    -2.680000000    -2.289000000
O    -2.129000000     2.820000000    -4.397000000
H    -2.651000000     2.646000000    -3.614000000
H    -1.919000000     3.752000000    -4.343000000
O     4.690000000    -2.224000000     1.232000000
H     4.524000000    -1.306000000     1.016000000
H     3.949000000    -2.697000000     0.852000000
O     1.603000000    -4.239000000     6.090000000
H     1.911000000    -5.145000000     6.076000000
H     1.342000000    -4.060000000     5.187000000
O     0.358000000     6.546000000     0.062000000
H     0.088000000     6.659000000     0.974000000
H     1.194000000     6.082000000     0.116000000
O     2.570000000     2.713000000     4.350000000
H     3.015000000     2.803000000     5.193000000
H     2.477000000     3.611000000     4.032000000
O     2.556000000     5.374000000     3.399000000
H     2.908000000     6.258000000     3.296000000
H     1.707000000     5.501000000     3.822000000
O     0.739000000     2.546000000    -3.970000000
H    -0.185000000     2.780000000    -4.049000000
H     1.200000000     3.218000000    -4.471000000
O     4.820000000     3.179000000    -3.896000000
H     5.605000000     3.386000000    -4.403000000
H     4.399000000     4.026000000    -3.749000000
O    -0.392000000    -5.976000000    -2.030000000
H    -0.413000000    -6.661000000    -2.698000000
H    -1.213000000    -5.498000000    -2.151000000
O     0.172000000     1.846000000     3.258000000
H     1.062000000     2.150000000     3.433000000
H     0.288000000     1.055000000     2.732000000
O    -2.441000000     0.528000000     3.863000000
H    -1.558000000     0.871000000     4.002000000
H    -2.316000000    -0.413000000     3.739000000
O     3.064000000     0.449000000     6.463000000
H     3.184000000     0.094000000     5.582000000
H     2.210000000     0.118000000     6.741000000
O     2.547000000    -2.093000000     3.905000000
H     2.207000000    -2.634000000     3.193000000
H     3.444000000    -2.402000000     4.033000000
