158
-3029.08267
C     0.089000000    -1.490000000     0.130000000
H     0.293000000    -2.555000000     0.209000000
C     1.146000000    -0.655000000    -0.182000000
H     2.148000000    -1.021000000    -0.390000000
C     0.998000000     0.686000000    -0.273000000
H     1.805000000     1.420000000    -0.482000000
C    -0.319000000     1.261000000    -0.083000000
H    -0.529000000     2.322000000    -0.199000000
C    -1.383000000     0.436000000     0.316000000
H    -2.385000000     0.855000000     0.283000000
C    -1.219000000    -0.971000000     0.326000000
C    -2.340000000    -1.824000000     0.780000000
O    -2.119000000    -3.034000000     0.875000000
O    -3.222000000    -1.279000000     1.431000000
O    -0.466000000     6.244000000     1.072000000
H    -1.082000000     6.903000000     1.394000000
H    -0.992000000     5.682000000     0.503000000
O    -7.013000000    -2.872000000     2.701000000
H    -6.071000000    -2.732000000     2.789000000
H    -7.098000000    -3.800000000     2.482000000
O    -0.718000000    -3.660000000     3.166000000
H    -1.412000000    -3.469000000     2.535000000
H    -0.030000000    -3.026000000     2.964000000
O    -5.853000000    -0.532000000     0.040000000
H    -5.333000000    -0.664000000     0.833000000
H    -6.578000000    -1.151000000     0.122000000
O    -4.697000000     0.469000000     2.800000000
H    -3.965000000    -0.109000000     2.584000000
H    -4.337000000     1.083000000     3.439000000
O     5.575000000    -2.051000000    -1.220000000
H     5.825000000    -2.928000000    -1.509000000
H     6.375000000    -1.532000000    -1.308000000
O    -0.811000000     4.290000000    -1.840000000
H    -1.669000000     3.866000000    -1.817000000
H    -0.597000000     4.348000000    -2.771000000
O     3.646000000    -2.416000000    -3.894000000
H     4.378000000    -2.264000000    -3.297000000
H     3.068000000    -3.012000000    -3.417000000
O     5.473000000     0.672000000    -0.509000000
H     5.052000000     0.867000000     0.328000000
H     5.324000000    -0.265000000    -0.639000000
O    -4.074000000    -4.907000000     0.868000000
H    -3.401000000    -4.245000000     0.707000000
H    -3.710000000    -5.713000000     0.504000000
O    -5.474000000     1.895000000    -1.289000000
H    -5.587000000     1.118000000    -0.741000000
H    -5.260000000     1.548000000    -2.155000000
O     4.270000000     1.357000000    -3.388000000
H     4.647000000     1.184000000    -2.525000000
H     4.987000000     1.193000000    -4.000000000
O     5.252000000     4.533000000    -0.558000000
H     5.072000000     4.339000000    -1.478000000
H     6.116000000     4.153000000    -0.398000000
O     0.131000000    -4.662000000     5.485000000
H    -0.171000000    -4.318000000     4.644000000
H    -0.508000000    -4.338000000     6.119000000
O     1.757000000    -1.162000000    -5.506000000
H     1.610000000    -1.989000000    -5.965000000
H     2.415000000    -1.370000000    -4.842000000
O    -3.575000000     3.604000000    -1.782000000
H    -3.990000000     4.111000000    -2.480000000
H    -4.108000000     2.812000000    -1.713000000
O    -1.450000000     0.062000000    -3.660000000
H    -1.870000000     0.911000000    -3.796000000
H    -0.550000000     0.277000000    -3.415000000
O    -3.334000000    -2.099000000    -3.213000000
H    -3.985000000    -1.951000000    -3.899000000
H    -2.867000000    -1.267000000    -3.142000000
O    -3.192000000     3.911000000     0.929000000
H    -4.115000000     4.031000000     1.152000000
H    -3.188000000     3.804000000    -0.023000000
O     2.158000000     1.718000000    -5.619000000
H     2.455000000     1.767000000    -4.710000000
H     2.074000000     0.781000000    -5.793000000
O    -0.049000000     2.853000000    -6.734000000
H     0.594000000     2.411000000    -6.180000000
H     0.475000000     3.381000000    -7.336000000
O    -3.692000000    -6.141000000     3.571000000
H    -4.102000000    -6.159000000     2.706000000
H    -3.868000000    -7.008000000     3.937000000
O     1.816000000    -3.298000000    -2.254000000
H     1.134000000    -2.645000000    -2.097000000
H     1.339000000    -4.119000000    -2.376000000
O     1.341000000    -5.611000000     1.596000000
H     2.027000000    -4.997000000     1.335000000
H     0.997000000    -5.951000000     0.770000000
O    -4.109000000    -3.139000000     3.211000000
H    -3.886000000    -4.004000000     2.867000000
H    -3.593000000    -2.530000000     2.682000000
O    -0.895000000    -6.991000000     2.660000000
H    -0.189000000    -6.604000000     2.142000000
H    -1.376000000    -6.240000000     3.008000000
O    -0.919000000    -4.976000000    -0.550000000
H    -1.214000000    -4.411000000     0.164000000
H    -1.311000000    -4.594000000    -1.335000000
O    -2.006000000    -4.422000000    -3.053000000
H    -2.553000000    -3.674000000    -3.290000000
H    -2.625000000    -5.082000000    -2.739000000
O    -3.849000000    -6.237000000    -2.187000000
H    -3.502000000    -7.117000000    -2.045000000
H    -4.705000000    -6.244000000    -1.759000000
O     7.263000000     0.908000000     1.858000000
H     7.204000000     1.789000000     2.229000000
H     6.795000000     0.967000000     1.025000000
O    -4.851000000     0.916000000    -3.687000000
H    -5.168000000     1.237000000    -4.532000000
H    -3.955000000     0.630000000    -3.861000000
O    -3.078000000    -7.390000000     0.924000000
H    -2.347000000    -7.083000000     1.460000000
H    -2.963000000    -8.339000000     0.882000000
O    -5.505000000    -3.693000000    -0.932000000
H    -5.010000000    -4.160000000    -0.258000000
H    -5.065000000    -2.847000000    -1.009000000
O     1.751000000     4.483000000    -0.840000000
H     0.823000000     4.460000000    -0.609000000
H     2.143000000     5.079000000    -0.202000000
O    -1.475000000     1.347000000     6.141000000
H    -0.990000000     0.753000000     6.714000000
H    -1.606000000     0.847000000     5.335000000
O     0.274000000    -7.488000000    -0.287000000
H    -0.101000000    -8.001000000    -1.003000000
H    -0.275000000    -6.705000000    -0.241000000
O     1.859000000     5.125000000     2.342000000
H     1.413000000     5.115000000     3.189000000
H     1.241000000     5.552000000     1.750000000
O     3.183000000    -4.215000000     0.157000000
H     2.754000000    -3.783000000    -0.581000000
H     3.620000000    -4.973000000    -0.230000000
O     4.079000000    -1.143000000     1.743000000
H     3.987000000    -1.685000000     0.960000000
H     5.017000000    -1.158000000     1.936000000
O     4.137000000     4.019000000    -2.909000000
H     3.346000000     4.352000000    -2.484000000
H     3.948000000     3.096000000    -3.076000000
O     3.833000000     3.005000000     2.396000000
H     2.937000000     3.325000000     2.289000000
H     3.771000000     2.347000000     3.087000000
O     1.215000000     5.891000000    -4.765000000
H     0.312000000     5.697000000    -4.515000000
H     1.738000000     5.237000000    -4.300000000
O    -7.413000000     1.209000000     2.701000000
H    -7.796000000     1.492000000     1.871000000
H    -6.472000000     1.169000000     2.530000000
O    -2.184000000     3.263000000     3.389000000
H    -2.895000000     3.469000000     2.782000000
H    -1.386000000     3.413000000     2.882000000
O     0.491000000     0.801000000     3.029000000
H    -0.287000000     0.849000000     3.584000000
H     0.150000000     0.832000000     2.135000000
O    -1.815000000    -0.609000000     3.929000000
H    -1.913000000    -0.808000000     2.998000000
H    -2.052000000    -1.422000000     4.375000000
O     4.481000000     5.958000000     1.525000000
H     4.913000000     5.348000000     0.927000000
H     3.698000000     5.492000000     1.818000000
O     1.599000000    -1.673000000     3.058000000
H     1.053000000    -0.888000000     3.024000000
H     2.351000000    -1.466000000     2.504000000
