158
-3041.73944
C    -0.498000000    -1.199000000    -0.641000000
H    -0.533000000    -2.178000000    -1.113000000
C     0.374000000    -0.248000000    -1.187000000
H     0.760000000    -0.315000000    -2.201000000
C     0.715000000     0.854000000    -0.500000000
H     1.379000000     1.590000000    -0.970000000
C     0.203000000     1.062000000     0.769000000
H     0.525000000     1.967000000     1.279000000
C    -0.541000000     0.076000000     1.450000000
H    -0.889000000     0.179000000     2.475000000
C    -0.918000000    -1.114000000     0.730000000
C    -1.713000000    -2.240000000     1.334000000
O    -2.568000000    -2.768000000     0.684000000
O    -1.526000000    -2.523000000     2.477000000
O    -1.888000000     3.121000000     4.241000000
H    -2.208000000     2.989000000     3.349000000
H    -0.952000000     2.928000000     4.191000000
O     3.249000000    -2.076000000     3.100000000
H     3.157000000    -1.674000000     2.236000000
H     2.353000000    -2.148000000     3.428000000
O    -3.633000000     0.850000000     3.525000000
H    -3.075000000     1.172000000     2.817000000
H    -3.024000000     0.462000000     4.153000000
O     0.749000000     6.296000000     0.824000000
H     1.662000000     6.290000000     0.534000000
H     0.800000000     6.422000000     1.771000000
O    -3.730000000     5.404000000    -0.934000000
H    -4.075000000     5.170000000    -1.795000000
H    -2.805000000     5.159000000    -0.972000000
O     2.653000000    -0.916000000     0.920000000
H     3.075000000    -0.063000000     1.019000000
H     1.732000000    -0.710000000     0.756000000
O    -7.632000000    -2.307000000     2.506000000
H    -7.671000000    -2.550000000     3.431000000
H    -6.808000000    -1.829000000     2.418000000
O     0.280000000     3.955000000    -2.834000000
H    -0.315000000     3.243000000    -3.069000000
H     0.301000000     4.515000000    -3.610000000
O     4.924000000     5.621000000    -1.112000000
H     4.366000000     4.853000000    -1.233000000
H     5.694000000     5.445000000    -1.652000000
O    -3.845000000    -4.132000000    -1.026000000
H    -3.292000000    -3.702000000    -0.375000000
H    -4.736000000    -4.026000000    -0.692000000
O     3.457000000     0.900000000    -2.493000000
H     3.207000000    -0.006000000    -2.311000000
H     4.251000000     1.038000000    -1.977000000
O    -1.283000000    -6.273000000     5.091000000
H    -2.171000000    -6.043000000     4.819000000
H    -0.749000000    -6.130000000     4.310000000
O    -5.210000000    -4.101000000     5.109000000
H    -4.539000000    -3.516000000     4.759000000
H    -6.031000000    -3.624000000     4.987000000
O     4.529000000     3.945000000     1.799000000
H     4.150000000     4.312000000     2.598000000
H     4.666000000     4.702000000     1.229000000
O     0.899000000    -0.302000000     5.621000000
H     1.058000000    -0.262000000     6.564000000
H     1.731000000    -0.041000000     5.226000000
O    -6.594000000    -2.868000000    -0.606000000
H    -6.397000000    -1.948000000    -0.778000000
H    -7.439000000    -3.016000000    -1.031000000
O    -6.102000000    -0.302000000    -1.258000000
H    -5.904000000     0.269000000    -0.516000000
H    -6.808000000     0.145000000    -1.723000000
O     5.579000000    -0.121000000    -0.343000000
H     5.736000000    -1.058000000    -0.232000000
H     6.444000000     0.247000000    -0.523000000
O     0.763000000     2.711000000     4.042000000
H     1.110000000     3.514000000     4.431000000
H     1.540000000     2.200000000     3.814000000
O    -6.118000000    -0.355000000     4.453000000
H    -5.297000000    -0.126000000     4.016000000
H    -6.644000000     0.443000000     4.408000000
O    -1.262000000     1.878000000    -3.478000000
H    -1.463000000     1.648000000    -2.571000000
H    -1.695000000     1.202000000    -3.999000000
O    -6.087000000    -4.966000000     1.768000000
H    -6.138000000    -4.011000000     1.716000000
H    -6.871000000    -5.222000000     2.254000000
O    -3.484000000    -1.439000000    -2.228000000
H    -4.422000000    -1.317000000    -2.081000000
H    -3.249000000    -2.180000000    -1.669000000
O    -0.955000000     4.454000000    -0.291000000
H    -0.509000000     5.256000000    -0.019000000
H    -0.474000000     4.164000000    -1.066000000
O     1.109000000     2.220000000    -6.899000000
H     1.493000000     1.690000000    -6.201000000
H     0.449000000     1.652000000    -7.296000000
O    -4.896000000    -4.175000000    -3.439000000
H    -4.174000000    -3.989000000    -2.839000000
H    -5.509000000    -4.697000000    -2.922000000
O    -2.615000000     2.914000000     1.367000000
H    -2.648000000     2.280000000     0.651000000
H    -2.029000000     3.602000000     1.050000000
O     3.950000000    -3.376000000    -1.080000000
H     3.501000000    -2.621000000    -0.700000000
H     4.881000000    -3.168000000    -0.995000000
O    -4.770000000    -2.151000000     2.049000000
H    -4.196000000    -2.218000000     2.812000000
H    -4.206000000    -2.362000000     1.305000000
O    -3.242000000    -2.381000000     4.640000000
H    -2.771000000    -1.695000000     5.113000000
H    -2.664000000    -2.609000000     3.911000000
O    -1.755000000    -7.712000000     0.332000000
H    -2.253000000    -7.175000000     0.949000000
H    -2.075000000    -8.602000000     0.477000000
O    -2.159000000    -3.223000000    -5.104000000
H    -1.538000000    -3.116000000    -5.826000000
H    -3.014000000    -3.047000000    -5.496000000
O     3.037000000     0.992000000     4.127000000
H     3.545000000     1.153000000     3.331000000
H     3.640000000     0.526000000     4.706000000
O    -2.496000000    -0.263000000    -4.498000000
H    -2.063000000    -1.108000000    -4.622000000
H    -3.110000000    -0.412000000    -3.779000000
O     4.653000000     1.129000000     1.868000000
H     4.386000000     2.044000000     1.785000000
H     5.129000000     0.944000000     1.058000000
O    -1.952000000     2.317000000     6.915000000
H    -1.110000000     2.714000000     7.139000000
H    -2.194000000     2.724000000     6.083000000
O    -1.821000000     0.121000000     5.297000000
H    -1.824000000     0.776000000     5.995000000
H    -0.901000000    -0.127000000     5.204000000
O     3.003000000     3.599000000    -2.725000000
H     3.060000000     2.646000000    -2.656000000
H     2.064000000     3.781000000    -2.764000000
O    -2.612000000     1.046000000    -0.930000000
H    -1.758000000     0.850000000    -0.546000000
H    -2.802000000     0.292000000    -1.489000000
O    -2.523000000    -6.882000000    -2.072000000
H    -2.361000000    -7.230000000    -1.195000000
H    -2.777000000    -5.971000000    -1.925000000
O     5.334000000     0.955000000    -4.825000000
H     4.450000000     1.130000000    -4.499000000
H     5.689000000     1.820000000    -5.029000000
O     3.709000000     5.687000000    -4.311000000
H     3.835000000     4.938000000    -3.730000000
H     4.097000000     5.414000000    -5.143000000
O     0.711000000    -2.434000000     3.951000000
H    -0.115000000    -2.403000000     3.469000000
H     0.610000000    -1.778000000     4.641000000
O    -3.303000000    -5.381000000     1.853000000
H    -3.049000000    -4.560000000     1.433000000
H    -4.257000000    -5.332000000     1.918000000
O     1.761000000     0.256000000    -4.931000000
H     1.980000000    -0.591000000    -5.318000000
H     1.839000000     0.116000000    -3.987000000
O     0.110000000    -4.917000000     2.368000000
H     0.801000000    -4.319000000     2.651000000
H    -0.689000000    -4.390000000     2.396000000
O     1.852000000    -4.284000000    -4.524000000
H     1.261000000    -4.880000000    -4.984000000
H     2.069000000    -4.741000000    -3.712000000
O     2.480000000    -2.085000000    -3.128000000
H     2.178000000    -2.717000000    -3.780000000
H     3.052000000    -2.591000000    -2.551000000
