158
-3009.03831
C     0.982000000    -0.774000000     0.775000000
H     1.779000000    -1.307000000     1.286000000
C     0.872000000    -0.796000000    -0.626000000
H     1.624000000    -1.386000000    -1.145000000
C     0.011000000     0.063000000    -1.247000000
H     0.035000000     0.069000000    -2.291000000
C    -0.878000000     0.855000000    -0.456000000
H    -1.653000000     1.449000000    -0.933000000
C    -0.937000000     0.692000000     0.921000000
H    -1.623000000     1.296000000     1.509000000
C     0.040000000    -0.097000000     1.561000000
C     0.222000000     0.028000000     3.082000000
O     1.100000000    -0.734000000     3.574000000
O    -0.743000000     0.450000000     3.707000000
O    -1.332000000    -4.204000000     2.171000000
H    -2.037000000    -4.572000000     2.704000000
H    -1.782000000    -3.716000000     1.481000000
O    -3.183000000    -1.039000000    -1.992000000
H    -3.875000000    -1.446000000    -2.512000000
H    -3.649000000    -0.495000000    -1.357000000
O    -5.129000000     0.156000000    -0.579000000
H    -5.135000000     1.073000000    -0.304000000
H    -5.864000000     0.084000000    -1.189000000
O     1.890000000     1.071000000    -8.266000000
H     2.421000000     0.921000000    -7.483000000
H     1.730000000     0.195000000    -8.617000000
O    -1.224000000     3.014000000     3.677000000
H    -0.639000000     3.471000000     3.072000000
H    -0.699000000     2.289000000     4.016000000
O    -3.947000000     1.024000000    -5.326000000
H    -3.954000000     0.285000000    -5.935000000
H    -4.773000000     0.949000000    -4.849000000
O    -0.149000000     3.808000000    -3.097000000
H    -0.279000000     3.063000000    -3.684000000
H    -0.284000000     4.576000000    -3.652000000
O    -2.786000000    -5.529000000    -2.997000000
H    -3.415000000    -5.263000000    -2.327000000
H    -2.254000000    -4.748000000    -3.151000000
O     3.351000000     1.309000000    -0.038000000
H     3.956000000     0.583000000     0.111000000
H     2.630000000     0.923000000    -0.535000000
O    -1.903000000    -2.339000000     0.080000000
H    -2.438000000    -2.055000000    -0.661000000
H    -1.298000000    -1.613000000     0.231000000
O    -1.281000000     5.350000000    -1.152000000
H    -0.857000000     5.104000000    -1.974000000
H    -0.697000000     5.014000000    -0.471000000
O    -0.754000000    -4.741000000     6.752000000
H    -0.417000000    -5.462000000     6.221000000
H    -0.354000000    -3.958000000     6.374000000
O    -3.521000000    -3.616000000    -5.562000000
H    -3.684000000    -4.559000000    -5.536000000
H    -2.825000000    -3.476000000    -4.919000000
O     4.867000000     2.745000000     2.109000000
H     5.684000000     2.256000000     2.008000000
H     4.336000000     2.206000000     2.695000000
O     3.422000000     2.486000000    -3.280000000
H     3.148000000     3.271000000    -2.805000000
H     4.203000000     2.186000000    -2.817000000
O     1.724000000     2.777000000     3.519000000
H     2.055000000     3.306000000     2.794000000
H     2.327000000     2.035000000     3.569000000
O    -3.944000000     2.972000000     3.055000000
H    -3.074000000     2.719000000     3.365000000
H    -4.378000000     2.142000000     2.854000000
O     3.042000000     1.227000000    -5.641000000
H     3.940000000     1.501000000    -5.824000000
H     2.898000000     1.470000000    -4.727000000
O    -4.771000000     0.412000000     2.270000000
H    -5.103000000     0.307000000     1.378000000
H    -4.129000000    -0.291000000     2.370000000
O    -2.777000000    -1.538000000     2.795000000
H    -2.478000000    -1.767000000     1.915000000
H    -1.994000000    -1.209000000     3.236000000
O    -3.981000000     4.978000000    -1.304000000
H    -4.342000000     5.157000000    -2.172000000
H    -3.040000000     5.118000000    -1.403000000
O    -4.886000000     3.023000000     0.417000000
H    -4.690000000     3.827000000    -0.064000000
H    -4.446000000     3.134000000     1.260000000
O     2.319000000     4.404000000    -1.754000000
H     1.443000000     4.269000000    -2.115000000
H     2.355000000     5.341000000    -1.559000000
O    -2.581000000     4.594000000     5.787000000
H    -2.672000000     5.430000000     5.329000000
H    -1.880000000     4.140000000     5.319000000
O     3.561000000    -3.550000000     0.256000000
H     4.116000000    -4.326000000     0.189000000
H     2.701000000    -3.844000000    -0.044000000
O     0.412000000     5.937000000     2.723000000
H     0.161000000     6.724000000     2.239000000
H     0.429000000     5.245000000     2.062000000
O     0.990000000    -4.219000000    -0.440000000
H     0.314000000    -4.117000000     0.230000000
H     0.612000000    -4.830000000    -1.071000000
O     0.300000000     3.902000000     0.501000000
H     1.218000000     4.025000000     0.741000000
H     0.308000000     3.164000000    -0.109000000
O    -4.732000000    -1.157000000     4.896000000
H    -4.207000000    -1.957000000     4.914000000
H    -4.166000000    -0.508000000     4.477000000
O    -2.200000000    -0.212000000     5.844000000
H    -1.761000000    -1.028000000     6.083000000
H    -1.791000000     0.047000000     5.019000000
O     1.552000000    -5.380000000     4.462000000
H     2.192000000    -4.821000000     4.903000000
H     2.033000000    -6.182000000     4.258000000
O     4.844000000    -3.819000000    -3.498000000
H     4.330000000    -3.388000000    -4.180000000
H     5.011000000    -3.132000000    -2.852000000
O     0.237000000    -0.930000000    -4.986000000
H     0.949000000    -0.337000000    -4.745000000
H     0.667000000    -1.638000000    -5.467000000
O     1.856000000    -1.483000000     6.546000000
H     1.923000000    -0.546000000     6.724000000
H     1.328000000    -1.538000000     5.749000000
O    -3.077000000     3.803000000    -4.928000000
H    -2.869000000     2.888000000    -4.744000000
H    -3.834000000     3.993000000    -4.374000000
O     3.261000000     0.566000000     3.216000000
H     3.858000000    -0.174000000     3.326000000
H     2.387000000     0.179000000     3.268000000
O    -4.326000000     0.744000000     7.428000000
H    -3.959000000     0.563000000     6.562000000
H    -4.151000000     1.674000000     7.572000000
O     3.756000000    -2.334000000    -5.698000000
H     4.224000000    -1.758000000    -6.303000000
H     2.903000000    -2.471000000    -6.109000000
O     1.789000000     3.712000000     6.410000000
H     1.717000000     2.826000000     6.767000000
H     1.577000000     3.614000000     5.482000000
O     5.385000000    -2.444000000     5.403000000
H     4.725000000    -3.137000000     5.442000000
H     5.041000000    -1.822000000     4.761000000
O    -1.257000000    -1.040000000    -7.771000000
H    -0.614000000    -1.653000000    -7.413000000
H    -2.010000000    -1.113000000    -7.185000000
O    -0.352000000    -2.841000000     4.798000000
H     0.246000000    -2.204000000     4.407000000
H    -0.411000000    -3.544000000     4.151000000
O     4.939000000    -1.188000000    -2.311000000
H     4.719000000    -1.151000000    -1.380000000
H     5.684000000    -0.594000000    -2.405000000
O    -0.605000000     2.304000000    -7.935000000
H    -0.001000000     1.647000000    -8.281000000
H    -0.644000000     2.124000000    -6.996000000
O     3.586000000    -2.532000000     3.218000000
H     2.732000000    -2.131000000     3.382000000
H     3.434000000    -3.128000000     2.484000000
O    -1.664000000    -2.598000000    -3.902000000
H    -1.903000000    -2.077000000    -3.136000000
H    -1.319000000    -1.961000000    -4.527000000
O    -1.216000000     1.623000000    -5.377000000
H    -0.728000000     0.799000000    -5.386000000
H    -2.125000000     1.364000000    -5.528000000
O     4.679000000    -1.049000000     0.619000000
H     5.008000000    -1.032000000     1.518000000
H     4.317000000    -1.930000000     0.514000000
