158
-3076.76376
C    -1.302000000    -0.458000000     0.234000000
H    -2.341000000    -0.741000000     0.385000000
C    -0.761000000    -0.170000000    -0.997000000
H    -1.330000000    -0.442000000    -1.883000000
C     0.539000000     0.200000000    -1.102000000
H     1.020000000     0.385000000    -2.075000000
C     1.300000000     0.414000000     0.029000000
H     2.319000000     0.790000000     0.049000000
C     0.719000000     0.168000000     1.285000000
H     1.345000000     0.458000000     2.126000000
C    -0.581000000    -0.342000000     1.379000000
C    -1.132000000    -0.547000000     2.774000000
O    -2.189000000    -1.163000000     3.022000000
O    -0.432000000    -0.182000000     3.778000000
O     1.743000000     1.672000000    -4.959000000
H     1.300000000     0.824000000    -4.957000000
H     1.165000000     2.245000000    -4.455000000
O    -1.560000000     2.651000000     3.691000000
H    -1.235000000     3.117000000     2.921000000
H    -0.785000000     2.226000000     4.059000000
O    -0.644000000     2.836000000    -0.469000000
H    -1.557000000     2.648000000    -0.687000000
H    -0.227000000     1.975000000    -0.425000000
O     4.228000000    -1.134000000     3.115000000
H     3.463000000    -1.647000000     3.376000000
H     4.888000000    -1.336000000     3.778000000
O     2.252000000     5.292000000     1.210000000
H     3.032000000     4.802000000     0.951000000
H     2.212000000     5.193000000     2.162000000
O     2.355000000    -5.086000000    -2.602000000
H     2.463000000    -4.191000000    -2.924000000
H     3.245000000    -5.436000000    -2.563000000
O    -1.094000000    -5.026000000    -4.290000000
H    -1.177000000    -5.514000000    -3.470000000
H    -0.611000000    -4.236000000    -4.050000000
O     2.631000000    -2.244000000    -2.854000000
H     3.153000000    -1.581000000    -2.403000000
H     2.624000000    -1.963000000    -3.768000000
O     2.637000000    -1.758000000    -5.436000000
H     3.037000000    -2.456000000    -5.955000000
H     2.361000000    -1.108000000    -6.082000000
O    -3.143000000    -3.313000000     1.624000000
H    -3.119000000    -2.463000000     2.064000000
H    -3.948000000    -3.724000000     1.941000000
O     4.525000000     1.138000000     1.880000000
H     4.511000000     0.225000000     2.167000000
H     4.122000000     1.621000000     2.601000000
O    -0.315000000    -0.071000000    -4.480000000
H    -1.151000000     0.349000000    -4.283000000
H    -0.517000000    -0.689000000    -5.183000000
O     2.420000000     0.404000000    -7.087000000
H     2.210000000     1.179000000    -6.566000000
H     2.174000000     0.643000000    -7.981000000
O     1.088000000     0.983000000     7.814000000
H     1.367000000     0.744000000     8.698000000
H     0.276000000     0.495000000     7.680000000
O     4.752000000     0.914000000     5.445000000
H     4.185000000     1.399000000     4.846000000
H     5.507000000     0.666000000     4.912000000
O     0.982000000    -3.051000000    -0.475000000
H     1.484000000    -3.018000000    -1.289000000
H     1.271000000    -2.282000000     0.016000000
O     0.942000000     1.588000000     5.254000000
H     1.133000000     1.479000000     6.186000000
H     0.516000000     0.770000000     4.999000000
O     0.449000000    -2.691000000     6.267000000
H     0.029000000    -2.412000000     7.081000000
H    -0.261000000    -3.071000000     5.750000000
O    -5.558000000    -3.626000000     5.618000000
H    -5.410000000    -3.152000000     4.799000000
H    -6.450000000    -3.966000000     5.540000000
O    -3.385000000     1.448000000     5.247000000
H    -2.996000000     1.872000000     4.482000000
H    -2.657000000     0.980000000     5.657000000
O    -4.508000000    -0.001000000     2.379000000
H    -5.140000000    -0.660000000     2.665000000
H    -3.717000000    -0.193000000     2.882000000
O    -3.309000000    -2.432000000     6.430000000
H    -3.851000000    -1.721000000     6.771000000
H    -3.932000000    -3.031000000     6.017000000
O    -3.083000000     2.939000000    -1.696000000
H    -2.492000000     3.597000000    -2.061000000
H    -3.950000000     3.344000000    -1.741000000
O     4.178000000    -2.526000000     0.423000000
H     4.551000000    -1.748000000     0.837000000
H     3.438000000    -2.764000000     0.983000000
O    -3.812000000    -3.783000000    -1.923000000
H    -3.020000000    -3.987000000    -1.427000000
H    -4.402000000    -3.387000000    -1.281000000
O     0.647000000    -3.217000000    -6.888000000
H     0.890000000    -3.647000000    -6.069000000
H     1.246000000    -3.583000000    -7.538000000
O    -4.093000000    -1.109000000    -3.009000000
H    -3.797000000    -1.995000000    -2.799000000
H    -4.888000000    -0.992000000    -2.489000000
O     2.899000000     2.518000000     3.757000000
H     2.632000000     3.436000000     3.702000000
H     2.165000000     2.081000000     4.189000000
O     4.407000000     3.758000000    -5.046000000
H     5.073000000     3.800000000    -5.732000000
H     3.729000000     4.370000000    -5.333000000
O    -5.839000000     0.214000000     5.764000000
H    -5.259000000     0.835000000     5.322000000
H    -5.285000000    -0.205000000     6.422000000
O    -1.540000000    -0.314000000     6.163000000
H    -2.103000000    -1.088000000     6.168000000
H    -1.233000000    -0.247000000     5.259000000
O    -5.845000000    -1.954000000    -0.907000000
H    -5.780000000    -1.033000000    -0.653000000
H    -6.734000000    -2.208000000    -0.659000000
O    -5.386000000     0.630000000    -0.170000000
H    -4.944000000     0.555000000     0.676000000
H    -5.057000000     1.449000000    -0.540000000
O     0.035000000    -2.795000000    -3.484000000
H     0.943000000    -2.768000000    -3.185000000
H    -0.224000000    -1.876000000    -3.548000000
O    -2.042000000     2.141000000    -6.699000000
H    -2.045000000     1.454000000    -6.033000000
H    -1.122000000     2.394000000    -6.778000000
O     3.857000000     3.342000000     0.459000000
H     3.860000000     3.158000000    -0.480000000
H     3.954000000     2.483000000     0.871000000
O    -0.329000000     4.495000000     1.689000000
H     0.591000000     4.698000000     1.517000000
H    -0.646000000     4.111000000     0.871000000
O    -1.396000000    -4.150000000    -0.279000000
H    -0.675000000    -3.527000000    -0.366000000
H    -1.975000000    -3.756000000     0.374000000
O     3.677000000     2.818000000    -2.527000000
H     2.858000000     3.275000000    -2.721000000
H     4.152000000     2.816000000    -3.358000000
O     1.828000000    -1.998000000     3.987000000
H     1.108000000    -1.436000000     3.702000000
H     1.531000000    -2.365000000     4.819000000
O    -1.225000000    -3.595000000     4.129000000
H    -1.633000000    -2.736000000     4.025000000
H    -1.004000000    -3.865000000     3.237000000
O     2.941000000    -4.286000000     2.591000000
H     3.322000000    -4.586000000     3.416000000
H     2.526000000    -3.451000000     2.809000000
O     6.319000000     0.798000000    -0.356000000
H     6.570000000     1.701000000    -0.162000000
H     5.435000000     0.712000000     0.001000000
O     0.947000000     3.991000000    -3.255000000
H     0.821000000     4.940000000    -3.278000000
H     0.244000000     3.670000000    -2.689000000
O     0.174000000    -4.565000000     2.036000000
H     1.055000000    -4.874000000     2.245000000
H     0.197000000    -4.394000000     1.095000000
O    -2.701000000     1.131000000    -3.911000000
H    -3.473000000     0.603000000    -3.709000000
H    -2.743000000     1.863000000    -3.296000000
O    -1.581000000    -1.780000000    -6.244000000
H    -0.895000000    -2.446000000    -6.220000000
H    -2.025000000    -1.922000000    -7.080000000
O     4.041000000     0.058000000    -2.178000000
H     4.086000000     1.007000000    -2.059000000
H     4.756000000    -0.142000000    -2.782000000
