158
-3047.35860
C    -1.481000000     0.128000000     0.455000000
H    -2.530000000     0.341000000     0.647000000
C    -0.978000000    -0.172000000    -0.819000000
H    -1.614000000    -0.340000000    -1.684000000
C     0.438000000    -0.362000000    -1.055000000
H     0.739000000    -0.671000000    -2.034000000
C     1.382000000    -0.107000000    -0.117000000
H     2.422000000    -0.354000000    -0.316000000
C     0.878000000     0.389000000     1.068000000
H     1.585000000     0.669000000     1.844000000
C    -0.483000000     0.464000000     1.399000000
C    -0.908000000     0.905000000     2.772000000
O    -2.065000000     1.204000000     2.990000000
O    -0.107000000     1.119000000     3.668000000
O    -3.418000000    -3.241000000     2.454000000
H    -4.119000000    -3.880000000     2.325000000
H    -3.860000000    -2.392000000     2.423000000
O    -2.629000000     3.525000000    -3.793000000
H    -2.568000000     3.063000000    -4.629000000
H    -1.995000000     4.239000000    -3.867000000
O    -0.786000000     3.936000000    -0.727000000
H    -1.593000000     3.951000000    -0.212000000
H    -0.815000000     3.100000000    -1.193000000
O     4.318000000     2.560000000     2.776000000
H     3.754000000     2.735000000     3.530000000
H     4.484000000     1.618000000     2.815000000
O    -3.047000000    -3.598000000    -1.566000000
H    -2.208000000    -3.356000000    -1.174000000
H    -3.225000000    -2.903000000    -2.198000000
O    -5.550000000     4.437000000     4.861000000
H    -5.569000000     3.485000000     4.763000000
H    -4.898000000     4.595000000     5.544000000
O     4.300000000    -1.894000000    -3.332000000
H     4.284000000    -1.942000000    -4.288000000
H     5.185000000    -1.598000000    -3.122000000
O    -0.352000000     0.681000000    -5.182000000
H    -0.012000000     1.102000000    -4.392000000
H    -0.864000000     1.364000000    -5.615000000
O     0.241000000    -4.306000000    -4.588000000
H     0.313000000    -3.542000000    -5.159000000
H     0.742000000    -4.070000000    -3.807000000
O    -3.967000000    -0.549000000     3.681000000
H    -3.463000000     0.155000000     3.272000000
H    -4.858000000    -0.206000000     3.735000000
O     4.728000000     4.702000000     0.889000000
H     4.681000000     3.863000000     1.348000000
H     5.485000000     5.144000000     1.275000000
O    -4.360000000     3.140000000    -0.603000000
H    -4.594000000     4.034000000    -0.855000000
H    -3.609000000     3.245000000    -0.019000000
O    -2.900000000    -1.614000000    -5.717000000
H    -3.087000000    -1.575000000    -4.779000000
H    -1.945000000    -1.652000000    -5.770000000
O     0.457000000     2.481000000     6.837000000
H     0.664000000     2.225000000     7.736000000
H    -0.319000000     1.967000000     6.614000000
O     4.474000000    -3.733000000     1.392000000
H     3.674000000    -3.423000000     1.817000000
H     5.183000000    -3.329000000     1.891000000
O    -1.899000000     0.833000000     8.521000000
H    -1.818000000     1.098000000     7.605000000
H    -1.881000000     1.654000000     9.011000000
O    -0.009000000    -3.277000000    -1.114000000
H     0.812000000    -3.515000000    -1.545000000
H     0.025000000    -2.323000000    -1.045000000
O    -1.205000000     3.654000000     4.374000000
H    -0.259000000     3.663000000     4.234000000
H    -1.486000000     2.793000000     4.064000000
O    -5.477000000     1.705000000     5.185000000
H    -6.095000000     1.022000000     4.926000000
H    -5.205000000     1.459000000     6.069000000
O    -2.500000000     3.565000000     1.320000000
H    -2.491000000     2.741000000     1.807000000
H    -2.957000000     4.178000000     1.896000000
O    -6.647000000     1.004000000    -0.268000000
H    -6.383000000     0.176000000    -0.670000000
H    -5.823000000     1.463000000    -0.103000000
O    -2.237000000    -1.736000000     5.485000000
H    -2.779000000    -2.432000000     5.858000000
H    -2.666000000    -1.515000000     4.659000000
O     6.283000000    -0.483000000    -0.535000000
H     5.911000000     0.371000000    -0.312000000
H     6.372000000    -0.464000000    -1.487000000
O     4.883000000     1.903000000    -0.081000000
H     4.124000000     2.240000000    -0.558000000
H     4.561000000     1.759000000     0.809000000
O     0.247000000    -1.700000000     7.045000000
H    -0.516000000    -1.653000000     6.469000000
H    -0.042000000    -2.239000000     7.782000000
O     4.503000000    -1.929000000    -6.181000000
H     4.357000000    -2.875000000    -6.195000000
H     5.439000000    -1.829000000    -6.352000000
O    -3.718000000    -1.210000000    -3.146000000
H    -4.662000000    -1.318000000    -3.031000000
H    -3.559000000    -0.283000000    -2.968000000
O     1.584000000     4.860000000     3.352000000
H     1.748000000     5.330000000     4.170000000
H     2.083000000     4.048000000     3.439000000
O    -3.195000000     3.348000000     6.785000000
H    -2.978000000     2.456000000     6.514000000
H    -2.650000000     3.906000000     6.231000000
O    -1.907000000     1.041000000     5.670000000
H    -2.064000000     0.105000000     5.800000000
H    -1.541000000     1.102000000     4.788000000
O    -5.619000000    -2.035000000    -0.468000000
H    -6.263000000    -2.320000000    -1.116000000
H    -5.098000000    -2.817000000    -0.288000000
O     2.267000000    -3.683000000    -2.494000000
H     2.775000000    -4.488000000    -2.392000000
H     2.922000000    -3.008000000    -2.671000000
O     0.573000000    -1.629000000    -5.719000000
H     1.202000000    -1.344000000    -6.381000000
H     0.129000000    -0.825000000    -5.448000000
O     3.331000000     3.415000000    -2.208000000
H     3.843000000     3.203000000    -2.988000000
H     3.395000000     4.367000000    -2.131000000
O    -0.366000000     5.859000000     1.725000000
H     0.379000000     5.538000000     2.234000000
H    -0.929000000     5.093000000     1.616000000
O    -0.639000000    -3.088000000     1.590000000
H    -0.533000000    -3.284000000     0.659000000
H    -1.582000000    -3.158000000     1.743000000
O     0.750000000     2.012000000    -2.982000000
H     1.566000000     2.491000000    -2.834000000
H     0.588000000     1.555000000    -2.157000000
O     2.056000000     2.299000000     4.453000000
H     1.264000000     1.904000000     4.087000000
H     1.885000000     2.352000000     5.393000000
O     3.596000000    -0.017000000     6.394000000
H     3.009000000     0.093000000     5.646000000
H     4.314000000     0.594000000     6.226000000
O     1.378000000    -0.683000000     4.745000000
H     0.779000000    -0.018000000     4.405000000
H     1.172000000    -0.735000000     5.679000000
O     4.433000000    -0.497000000     2.119000000
H     3.836000000    -1.241000000     2.198000000
H     5.246000000    -0.876000000     1.788000000
O    -1.801000000    -6.224000000    -4.049000000
H    -1.356000000    -5.384000000    -4.156000000
H    -1.374000000    -6.804000000    -4.680000000
O     1.763000000     4.814000000     6.258000000
H     1.285000000     3.986000000     6.205000000
H     1.264000000     5.339000000     6.883000000
O     2.216000000    -2.478000000     2.466000000
H     1.340000000    -2.342000000     2.105000000
H     2.190000000    -2.051000000     3.323000000
O    -3.653000000     1.309000000    -2.590000000
H    -3.991000000     1.898000000    -1.916000000
H    -3.262000000     1.891000000    -3.242000000
O     2.631000000    -0.613000000    -7.641000000
H     2.960000000     0.286000000    -7.670000000
H     3.251000000    -1.077000000    -7.080000000
O     4.691000000     1.663000000    -4.687000000
H     3.945000000     1.962000000    -5.208000000
H     4.394000000     0.842000000    -4.294000000
O     0.332000000    -6.050000000    -1.516000000
H    -0.390000000    -6.519000000    -1.098000000
H     0.076000000    -5.128000000    -1.472000000
