158
-3066.43270
C    -1.416000000    -0.444000000     0.200000000
H    -2.436000000    -0.806000000     0.298000000
C    -0.938000000     0.168000000    -0.950000000
H    -1.577000000     0.429000000    -1.790000000
C     0.401000000     0.579000000    -1.089000000
H     0.622000000     1.168000000    -1.889000000
C     1.211000000     0.487000000     0.085000000
H     2.196000000     0.945000000     0.130000000
C     0.796000000    -0.223000000     1.236000000
H     1.400000000    -0.361000000     2.129000000
C    -0.542000000    -0.673000000     1.285000000
C    -1.041000000    -1.442000000     2.525000000
O    -2.229000000    -1.513000000     2.703000000
O    -0.222000000    -1.900000000     3.312000000
O     2.492000000     1.214000000    -3.818000000
H     2.557000000     0.417000000    -3.292000000
H     2.281000000     1.901000000    -3.186000000
O     3.652000000    -3.111000000     6.716000000
H     2.834000000    -2.932000000     6.252000000
H     3.989000000    -2.247000000     6.950000000
O    -0.704000000     3.958000000     3.547000000
H    -1.256000000     3.603000000     2.850000000
H     0.083000000     3.413000000     3.531000000
O    -1.805000000     4.512000000    -0.792000000
H    -1.768000000     4.109000000    -1.660000000
H    -2.073000000     5.416000000    -0.958000000
O     3.347000000    -0.980000000     3.471000000
H     2.700000000    -0.690000000     4.114000000
H     4.137000000    -0.484000000     3.686000000
O     0.934000000     3.312000000     0.803000000
H     0.039000000     3.072000000     1.041000000
H     1.411000000     2.482000000     0.798000000
O     1.636000000    -4.296000000    -2.367000000
H     1.346000000    -3.803000000    -1.600000000
H     2.564000000    -4.463000000    -2.207000000
O     2.623000000    -1.582000000    -3.420000000
H     2.671000000    -2.282000000    -4.071000000
H     3.368000000    -1.742000000    -2.841000000
O     2.011000000    -2.203000000    -6.192000000
H     1.447000000    -1.447000000    -6.031000000
H     2.223000000    -2.149000000    -7.124000000
O    -3.372000000    -3.360000000     1.137000000
H    -2.706000000    -2.944000000     1.685000000
H    -4.157000000    -3.375000000     1.683000000
O     4.638000000    -0.111000000     0.885000000
H     4.161000000     0.705000000     0.735000000
H     4.656000000    -0.206000000     1.837000000
O    -4.981000000     2.294000000     3.207000000
H    -4.903000000     1.343000000     3.284000000
H    -4.481000000     2.636000000     3.948000000
O    -1.235000000    -0.125000000    -5.674000000
H    -1.733000000     0.571000000    -5.246000000
H    -1.828000000    -0.877000000    -5.675000000
O     1.302000000     0.780000000    -6.287000000
H     1.708000000     0.954000000    -5.438000000
H     0.379000000     0.628000000    -6.084000000
O    -6.524000000    -2.699000000    -2.296000000
H    -6.923000000    -3.101000000    -1.524000000
H    -5.645000000    -2.451000000    -2.009000000
O     5.275000000     1.166000000     3.542000000
H     5.041000000     1.735000000     2.810000000
H     6.164000000     0.871000000     3.343000000
O     1.740000000    -2.969000000     0.031000000
H     2.401000000    -2.690000000     0.664000000
H     1.065000000    -2.292000000     0.075000000
O     1.110000000    -0.264000000     4.983000000
H     0.693000000    -0.697000000     5.728000000
H     0.781000000    -0.735000000     4.218000000
O    -2.257000000     4.270000000    -3.664000000
H    -2.708000000     5.098000000    -3.494000000
H    -2.256000000     4.190000000    -4.618000000
O     0.289000000    -6.888000000     1.724000000
H     0.337000000    -5.991000000     2.054000000
H    -0.624000000    -6.996000000     1.458000000
O    -1.622000000    -5.005000000     7.171000000
H    -2.054000000    -4.457000000     7.827000000
H    -1.548000000    -4.443000000     6.400000000
O    -5.439000000    -3.696000000     3.030000000
H    -5.721000000    -4.448000000     2.510000000
H    -6.158000000    -3.545000000     3.643000000
O    -3.374000000     2.491000000     5.253000000
H    -2.847000000     1.716000000     5.059000000
H    -3.106000000     2.749000000     6.135000000
O    -4.865000000    -0.524000000     2.679000000
H    -5.298000000    -0.985000000     3.397000000
H    -3.951000000    -0.805000000     2.729000000
O     0.896000000     6.182000000     0.772000000
H     1.053000000     5.257000000     0.958000000
H     1.425000000     6.650000000     1.418000000
O    -4.819000000     3.030000000    -0.646000000
H    -5.212000000     3.114000000    -1.515000000
H    -5.422000000     3.494000000    -0.065000000
O     0.645000000     6.554000000    -2.092000000
H    -0.088000000     7.130000000    -2.311000000
H     0.599000000     6.459000000    -1.141000000
O     3.103000000    -3.411000000     2.524000000
H     3.076000000    -2.547000000     2.934000000
H     3.762000000    -3.893000000     3.025000000
O    -1.833000000    -3.483000000    -2.469000000
H    -1.277000000    -2.812000000    -2.866000000
H    -1.324000000    -3.806000000    -1.725000000
O    -3.932000000    -2.237000000    -1.482000000
H    -3.863000000    -2.735000000    -0.668000000
H    -3.289000000    -2.641000000    -2.065000000
O     1.747000000     2.169000000     3.933000000
H     2.082000000     2.808000000     4.562000000
H     1.511000000     1.409000000     4.465000000
O    -4.672000000    -1.243000000     5.437000000
H    -3.769000000    -0.931000000     5.383000000
H    -4.592000000    -2.174000000     5.645000000
O    -2.100000000     0.008000000     5.412000000
H    -1.609000000     0.271000000     6.190000000
H    -1.520000000    -0.606000000     4.959000000
O    -4.661000000     0.613000000    -1.751000000
H    -4.572000000     1.389000000    -1.197000000
H    -4.888000000    -0.090000000    -1.144000000
O    -6.312000000     0.164000000     0.578000000
H    -5.637000000    -0.069000000     1.215000000
H    -6.362000000     1.119000000     0.619000000
O     0.056000000    -1.655000000    -3.554000000
H     0.998000000    -1.487000000    -3.582000000
H    -0.344000000    -0.823000000    -3.808000000
O     4.091000000     2.997000000     1.685000000
H     4.004000000     3.536000000     0.899000000
H     3.502000000     3.404000000     2.321000000
O    -1.941000000     2.690000000     1.596000000
H    -2.067000000     3.240000000     0.822000000
H    -2.822000000     2.393000000     1.825000000
O    -1.246000000    -4.636000000    -0.185000000
H    -0.567000000    -4.862000000     0.451000000
H    -2.021000000    -4.453000000     0.347000000
O     4.130000000     2.809000000    -1.369000000
H     3.283000000     3.181000000    -1.616000000
H     4.749000000     3.192000000    -1.990000000
O     3.212000000     6.750000000    -1.995000000
H     2.298000000     6.467000000    -1.990000000
H     3.699000000     5.981000000    -2.292000000
O     1.059000000    -3.282000000     5.221000000
H     0.720000000    -3.004000000     4.370000000
H     1.103000000    -4.236000000     5.162000000
O    -2.521000000    -3.608000000     4.632000000
H    -2.332000000    -2.985000000     3.931000000
H    -3.145000000    -4.222000000     4.245000000
O     1.623000000     3.555000000    -1.954000000
H     0.944000000     4.147000000    -2.277000000
H     1.423000000     3.444000000    -1.025000000
O    -5.751000000     1.192000000    -4.097000000
H    -6.608000000     0.793000000    -4.250000000
H    -5.412000000     0.743000000    -3.323000000
O     0.225000000    -4.387000000     2.180000000
H     0.838000000    -4.096000000     1.505000000
H    -0.133000000    -3.577000000     2.544000000
O    -2.935000000     1.386000000    -4.021000000
H    -3.434000000     0.882000000    -3.378000000
H    -2.855000000     2.258000000    -3.633000000
O     4.659000000    -1.569000000    -1.532000000
H     4.554000000    -1.091000000    -0.709000000
H     5.352000000    -1.097000000    -1.995000000
