158
-3059.81813
C    -1.190000000     0.067000000     0.904000000
H    -2.038000000    -0.025000000     1.579000000
C    -0.689000000    -1.104000000     0.269000000
H    -1.298000000    -1.994000000     0.402000000
C     0.500000000    -1.034000000    -0.478000000
H     0.843000000    -1.922000000    -1.085000000
C     1.153000000     0.171000000    -0.605000000
H     2.075000000     0.195000000    -1.180000000
C     0.636000000     1.351000000    -0.018000000
H     1.114000000     2.294000000    -0.269000000
C    -0.601000000     1.325000000     0.718000000
C    -1.179000000     2.571000000     1.330000000
O    -2.280000000     2.433000000     1.945000000
O    -0.778000000     3.640000000     0.962000000
O     4.600000000    -2.277000000     1.294000000
H     4.677000000    -1.625000000     0.597000000
H     5.493000000    -2.383000000     1.621000000
O     0.137000000    -6.293000000     2.638000000
H     0.932000000    -6.789000000     2.442000000
H     0.201000000    -5.512000000     2.088000000
O    -5.485000000     0.122000000    -1.025000000
H    -5.082000000     0.473000000    -0.231000000
H    -5.600000000     0.884000000    -1.592000000
O    -4.447000000    -1.815000000     1.172000000
H    -4.307000000    -0.904000000     0.911000000
H    -5.389000000    -1.877000000     1.332000000
O     1.116000000     4.506000000     4.830000000
H     0.813000000     4.414000000     3.927000000
H     1.713000000     5.254000000     4.808000000
O    -3.724000000     5.006000000     6.015000000
H    -3.716000000     4.262000000     6.617000000
H    -3.736000000     4.610000000     5.144000000
O    -2.840000000    -4.745000000    -4.224000000
H    -2.383000000    -4.719000000    -3.383000000
H    -3.767000000    -4.668000000    -3.996000000
O     4.179000000    -4.817000000    -0.654000000
H     4.055000000    -4.781000000     0.295000000
H     3.837000000    -3.982000000    -0.972000000
O    -3.000000000    -2.349000000     5.392000000
H    -3.440000000    -1.532000000     5.626000000
H    -2.164000000    -2.071000000     5.017000000
O    -3.257000000    -1.630000000    -2.061000000
H    -3.270000000    -1.526000000    -3.013000000
H    -3.997000000    -1.107000000    -1.753000000
O    -3.547000000    -3.844000000    -0.434000000
H    -3.360000000    -3.287000000    -1.190000000
H    -3.819000000    -3.235000000     0.251000000
O     0.002000000     2.708000000     6.257000000
H     0.364000000     3.290000000     5.588000000
H    -0.549000000     2.096000000     5.768000000
O     3.122000000    -2.451000000    -1.662000000
H     3.403000000    -1.644000000    -1.231000000
H     3.616000000    -2.469000000    -2.482000000
O    -5.703000000    -0.227000000     3.874000000
H    -5.333000000     0.266000000     3.141000000
H    -6.126000000    -0.982000000     3.465000000
O     5.378000000    -2.274000000    -3.348000000
H     5.320000000    -1.460000000    -3.848000000
H     5.854000000    -2.874000000    -3.921000000
O    -3.099000000     5.838000000    -2.822000000
H    -3.606000000     5.311000000    -2.204000000
H    -2.319000000     6.097000000    -2.331000000
O     1.221000000    -5.312000000     0.277000000
H     0.420000000    -4.845000000     0.516000000
H     1.904000000    -4.903000000     0.808000000
O    -2.589000000     5.493000000     2.954000000
H    -2.365000000     4.582000000     2.762000000
H    -3.072000000     5.788000000     2.182000000
O    -4.252000000     2.406000000     4.951000000
H    -3.310000000     2.250000000     4.878000000
H    -4.542000000     1.803000000     5.636000000
O     1.011000000     2.522000000    -4.442000000
H     1.618000000     3.078000000    -3.953000000
H     0.273000000     2.391000000    -3.847000000
O     1.970000000    -4.249000000    -5.520000000
H     1.672000000    -4.352000000    -4.616000000
H     1.637000000    -3.392000000    -5.786000000
O    -4.355000000     6.486000000     0.820000000
H    -4.633000000     5.601000000     0.585000000
H    -4.493000000     6.999000000     0.025000000
O     3.594000000     5.022000000     0.892000000
H     3.835000000     5.933000000     0.724000000
H     3.975000000     4.828000000     1.749000000
O    -3.110000000    -3.560000000     3.053000000
H    -3.520000000    -3.017000000     2.379000000
H    -3.296000000    -3.103000000     3.873000000
O     4.407000000    -0.287000000    -0.458000000
H     4.237000000     0.556000000    -0.037000000
H     4.957000000    -0.071000000    -1.212000000
O    -0.807000000    -3.908000000     1.567000000
H    -0.750000000    -3.079000000     2.043000000
H    -1.655000000    -4.271000000     1.821000000
O     2.823000000     3.863000000    -2.949000000
H     2.546000000     3.982000000    -2.041000000
H     3.485000000     4.540000000    -3.088000000
O     5.171000000     2.603000000    -4.009000000
H     4.400000000     2.822000000    -3.486000000
H     5.309000000     3.370000000    -4.564000000
O    -0.485000000    -1.148000000     4.192000000
H     0.063000000    -0.630000000     3.603000000
H     0.096000000    -1.381000000     4.916000000
O    -0.912000000     6.768000000    -1.532000000
H    -0.132000000     6.304000000    -1.229000000
H    -0.715000000     7.693000000    -1.381000000
O     2.705000000    -6.579000000    -2.424000000
H     2.101000000    -7.102000000    -1.898000000
H     3.209000000    -6.078000000    -1.782000000
O     0.669000000     5.545000000     2.081000000
H     0.545000000     6.346000000     1.572000000
H     0.290000000     4.855000000     1.537000000
O    -4.482000000     1.062000000     1.724000000
H    -5.027000000     1.848000000     1.694000000
H    -3.585000000     1.394000000     1.768000000
O    -1.581000000     1.640000000     4.420000000
H    -1.303000000     0.733000000     4.292000000
H    -1.789000000     1.953000000     3.539000000
O     2.320000000     0.377000000    -5.432000000
H     1.987000000     1.201000000    -5.077000000
H     1.685000000    -0.281000000    -5.148000000
O    -1.439000000    -4.395000000    -2.132000000
H    -0.539000000    -4.069000000    -2.125000000
H    -1.707000000    -4.377000000    -1.213000000
O    -1.705000000     3.104000000    -3.616000000
H    -1.733000000     2.288000000    -3.116000000
H    -2.121000000     3.749000000    -3.045000000
O     1.070000000     5.004000000    -0.830000000
H     0.458000000     4.419000000    -0.384000000
H     1.830000000     5.043000000    -0.249000000
O     1.907000000    -0.411000000     2.356000000
H     1.476000000    -0.446000000     1.502000000
H     2.489000000    -1.171000000     2.362000000
O    -3.086000000     3.704000000    -0.998000000
H    -3.902000000     3.465000000    -0.559000000
H    -2.521000000     4.025000000    -0.296000000
O    -5.998000000     3.093000000     2.927000000
H    -6.886000000     2.917000000     3.236000000
H    -5.446000000     2.976000000     3.700000000
O    -1.025000000     0.174000000    -2.961000000
H    -0.473000000     0.114000000    -2.181000000
H    -1.686000000    -0.508000000    -2.840000000
O     2.871000000     1.572000000     3.638000000
H     2.937000000     1.232000000     4.530000000
H     2.229000000     1.003000000     3.212000000
O     3.009000000    -4.260000000     2.247000000
H     3.498000000    -3.484000000     1.973000000
H     2.628000000    -4.018000000     3.091000000
O     4.131000000     1.824000000     1.020000000
H     3.462000000     1.646000000     1.681000000
H     4.046000000     2.761000000     0.840000000
O     1.144000000    -4.183000000    -2.653000000
H     1.473000000    -5.081000000    -2.606000000
H     1.790000000    -3.666000000    -2.172000000
O     0.648000000    -1.768000000    -5.217000000
H    -0.226000000    -1.800000000    -5.607000000
H     0.506000000    -1.978000000    -4.294000000
O    -5.554000000     3.950000000     0.389000000
H    -6.420000000     4.024000000    -0.013000000
H    -5.730000000     3.646000000     1.280000000
