158
-3049.85425
C     1.445000000    -0.142000000     0.185000000
H     2.522000000    -0.103000000     0.329000000
C     0.669000000     0.872000000     0.737000000
H     1.090000000     1.580000000     1.445000000
C    -0.678000000     0.910000000     0.492000000
H    -1.274000000     1.748000000     1.011000000
C    -1.238000000    -0.096000000    -0.254000000
H    -2.304000000    -0.102000000    -0.463000000
C    -0.452000000    -1.120000000    -0.834000000
H    -0.845000000    -1.861000000    -1.525000000
C     0.906000000    -1.144000000    -0.613000000
C     1.786000000    -2.146000000    -1.347000000
O     1.352000000    -3.243000000    -1.754000000
O     2.997000000    -1.859000000    -1.342000000
O     1.375000000    -6.184000000    -4.738000000
H     2.291000000    -6.391000000    -4.922000000
H     0.879000000    -6.855000000    -5.207000000
O    -1.507000000     5.226000000    -2.673000000
H    -2.248000000     5.445000000    -3.237000000
H    -0.879000000     4.800000000    -3.256000000
O     5.994000000     1.657000000    -0.194000000
H     5.554000000     0.821000000    -0.038000000
H     5.821000000     1.850000000    -1.116000000
O    -4.776000000     2.006000000    -2.317000000
H    -4.339000000     1.178000000    -2.115000000
H    -4.296000000     2.660000000    -1.809000000
O    -0.359000000    -3.809000000     1.039000000
H    -1.095000000    -3.707000000     0.435000000
H    -0.368000000    -3.009000000     1.565000000
O     6.447000000    -5.160000000    -1.519000000
H     6.015000000    -5.538000000    -0.753000000
H     5.783000000    -4.596000000    -1.914000000
O    -7.153000000     1.074000000     2.732000000
H    -6.782000000     1.715000000     3.339000000
H    -6.511000000     0.365000000     2.710000000
O    -3.204000000    -4.491000000     2.050000000
H    -3.458000000    -3.573000000     2.147000000
H    -2.250000000    -4.468000000     1.969000000
O     4.588000000    -0.320000000     2.321000000
H     4.676000000     0.630000000     2.399000000
H     4.735000000    -0.498000000     1.392000000
O     3.536000000    -1.515000000    -5.213000000
H     2.987000000    -2.169000000    -4.779000000
H     3.613000000    -0.806000000    -4.575000000
O    -3.448000000     3.447000000     4.765000000
H    -2.511000000     3.455000000     4.963000000
H    -3.728000000     2.555000000     4.968000000
O    -0.103000000    -5.222000000    -2.498000000
H     0.304000000    -5.348000000    -3.355000000
H     0.492000000    -4.631000000    -2.035000000
O    -1.587000000     1.233000000     4.976000000
H    -1.561000000     0.679000000     4.195000000
H    -0.839000000     1.822000000     4.876000000
O     1.749000000    -5.268000000     0.206000000
H     1.999000000    -4.602000000    -0.434000000
H     0.831000000    -5.077000000     0.403000000
O     0.652000000     4.168000000     1.652000000
H     0.218000000     4.622000000     0.929000000
H     1.490000000     3.885000000     1.288000000
O    -3.230000000     3.476000000    -0.410000000
H    -3.185000000     3.603000000     0.538000000
H    -2.469000000     3.946000000    -0.751000000
O     1.900000000    -3.469000000    -4.382000000
H     1.756000000    -4.386000000    -4.617000000
H     1.670000000    -3.422000000    -3.454000000
O     0.566000000     5.284000000    -0.869000000
H    -0.269000000     5.669000000    -1.135000000
H     0.821000000     4.733000000    -1.609000000
O    -7.433000000     1.487000000    -1.694000000
H    -6.480000000     1.574000000    -1.737000000
H    -7.704000000     1.372000000    -2.605000000
O     1.341000000    -4.183000000     3.521000000
H     1.462000000    -4.810000000     2.808000000
H     2.073000000    -3.573000000     3.431000000
O     4.297000000    -5.091000000     1.355000000
H     3.594000000    -5.047000000     0.706000000
H     4.042000000    -4.461000000     2.028000000
O     1.985000000    -0.111000000     3.615000000
H     2.173000000     0.759000000     3.967000000
H     2.754000000    -0.327000000     3.087000000
O    -4.236000000     0.644000000     2.704000000
H    -4.540000000     1.019000000     3.530000000
H    -3.509000000     1.207000000     2.439000000
O     6.593000000    -0.587000000    -2.609000000
H     6.285000000     0.317000000    -2.677000000
H     7.077000000    -0.737000000    -3.421000000
O     3.804000000    -3.138000000     3.315000000
H     3.686000000    -3.284000000     4.254000000
H     4.312000000    -2.329000000     3.261000000
O    -2.871000000     2.081000000    -4.577000000
H    -3.023000000     1.137000000    -4.598000000
H    -3.621000000     2.434000000    -4.098000000
O     0.142000000     3.218000000     4.318000000
H    -0.008000000     3.883000000     4.990000000
H     0.306000000     3.719000000     3.518000000
O     5.640000000     2.402000000     2.484000000
H     5.904000000     2.447000000     1.565000000
H     5.725000000     3.301000000     2.802000000
O    -3.356000000    -0.844000000    -4.387000000
H    -2.428000000    -1.036000000    -4.254000000
H    -3.801000000    -1.314000000    -3.682000000
O     3.007000000     0.226000000    -3.064000000
H     3.134000000    -0.417000000    -2.367000000
H     2.063000000     0.382000000    -3.077000000
O    -1.546000000    -2.503000000     4.421000000
H    -1.654000000    -2.163000000     5.309000000
H    -1.274000000    -1.744000000     3.905000000
O     1.181000000    -7.677000000    -1.740000000
H     1.614000000    -6.915000000    -2.123000000
H     0.416000000    -7.824000000    -2.298000000
O     3.056000000     2.419000000     4.528000000
H     3.706000000     2.823000000     3.952000000
H     2.215000000     2.729000000     4.194000000
O     4.969000000    -0.792000000    -0.140000000
H     4.323000000    -1.284000000    -0.646000000
H     5.752000000    -0.788000000    -0.690000000
O     1.876000000     7.023000000     0.637000000
H     0.999000000     7.048000000     1.020000000
H     1.790000000     6.447000000    -0.122000000
O     0.359000000     0.963000000    -3.152000000
H    -0.245000000     0.743000000    -3.861000000
H    -0.183000000     0.953000000    -2.363000000
O     3.189000000     3.707000000     0.788000000
H     3.786000000     3.007000000     0.524000000
H     3.597000000     4.507000000     0.458000000
O     8.337000000    -2.070000000    -1.277000000
H     7.701000000    -1.487000000    -1.691000000
H     8.359000000    -1.789000000    -0.362000000
O     5.113000000     1.714000000    -2.827000000
H     4.248000000     1.310000000    -2.896000000
H     5.150000000     2.326000000    -3.562000000
O     4.525000000    -3.780000000    -2.503000000
H     4.570000000    -3.380000000    -3.371000000
H     3.978000000    -3.184000000    -1.992000000
O    -0.939000000    -1.735000000    -4.386000000
H    -0.923000000    -2.666000000    -4.607000000
H    -0.041000000    -1.439000000    -4.531000000
O    -0.533000000    -0.492000000     3.059000000
H     0.402000000    -0.363000000     3.214000000
H    -0.680000000    -0.149000000     2.177000000
O    -3.574000000     4.017000000     2.211000000
H    -4.039000000     4.846000000     2.099000000
H    -3.704000000     3.790000000     3.132000000
O    -2.565000000     1.220000000     7.710000000
H    -2.240000000     1.229000000     6.809000000
H    -3.131000000     0.449000000     7.752000000
O    -4.271000000    -1.818000000     1.524000000
H    -4.724000000    -1.729000000     0.686000000
H    -4.296000000    -0.939000000     1.903000000
O    -4.353000000    -1.961000000    -1.833000000
H    -3.596000000    -2.547000000    -1.856000000
H    -5.025000000    -2.457000000    -1.365000000
O     2.344000000    -8.029000000     1.040000000
H     2.090000000    -7.938000000     1.958000000
H     1.987000000    -7.250000000     0.614000000
O    -2.355000000    -3.928000000    -1.259000000
H    -2.556000000    -4.632000000    -0.642000000
H    -1.726000000    -4.315000000    -1.867000000
