158
-3043.72379
C     0.520000000    -1.225000000     0.554000000
H     1.093000000    -2.115000000     0.799000000
C     0.088000000    -1.043000000    -0.780000000
H     0.232000000    -1.799000000    -1.547000000
C    -0.335000000     0.191000000    -1.148000000
H    -0.695000000     0.363000000    -2.182000000
C    -0.388000000     1.226000000    -0.187000000
H    -0.728000000     2.187000000    -0.566000000
C    -0.076000000     0.987000000     1.117000000
H    -0.144000000     1.823000000     1.809000000
C     0.467000000    -0.207000000     1.485000000
C     0.906000000    -0.580000000     2.853000000
O     1.086000000    -1.807000000     3.085000000
O     1.111000000     0.284000000     3.701000000
O    -3.425000000     3.652000000    -5.607000000
H    -3.876000000     4.196000000    -4.960000000
H    -2.592000000     3.427000000    -5.192000000
O     2.920000000     1.499000000    -4.385000000
H     2.296000000     2.198000000    -4.190000000
H     3.015000000     1.025000000    -3.559000000
O    -4.211000000    -0.089000000     2.594000000
H    -3.954000000     0.831000000     2.656000000
H    -5.015000000    -0.148000000     3.111000000
O    -3.386000000     1.037000000    -3.272000000
H    -3.260000000     0.248000000    -2.744000000
H    -3.854000000     1.639000000    -2.694000000
O    -0.985000000     0.039000000    -6.189000000
H    -1.358000000     0.668000000    -6.807000000
H    -1.736000000    -0.466000000    -5.879000000
O    -3.260000000    -2.544000000     4.191000000
H    -2.904000000    -1.672000000     4.021000000
H    -3.219000000    -2.989000000     3.344000000
O    -2.424000000    -2.291000000    -5.031000000
H    -2.495000000    -2.953000000    -4.343000000
H    -2.453000000    -2.789000000    -5.847000000
O     1.611000000    -0.780000000    -5.689000000
H     1.142000000    -0.884000000    -6.517000000
H     1.499000000     0.144000000    -5.465000000
O    -2.686000000    -0.697000000     0.552000000
H    -3.238000000    -0.557000000     1.322000000
H    -1.927000000    -0.131000000     0.697000000
O    -1.680000000     0.300000000     4.364000000
H    -1.275000000    -0.278000000     5.010000000
H    -0.942000000     0.678000000     3.885000000
O     0.753000000    -3.320000000     5.299000000
H     0.913000000    -2.923000000     4.442000000
H     0.837000000    -2.595000000     5.918000000
O    -5.576000000    -1.849000000    -2.318000000
H    -5.555000000    -1.918000000    -1.364000000
H    -4.656000000    -1.785000000    -2.574000000
O     0.943000000     4.887000000     6.161000000
H     0.290000000     4.381000000     6.645000000
H     1.163000000     4.337000000     5.409000000
O    -3.744000000     2.627000000     2.466000000
H    -3.029000000     3.250000000     2.596000000
H    -4.409000000     3.121000000     1.987000000
O    -4.417000000     5.035000000     0.848000000
H    -5.029000000     5.736000000     0.622000000
H    -4.461000000     4.431000000     0.107000000
O     4.798000000     0.398000000     4.056000000
H     4.480000000    -0.222000000     4.713000000
H     5.307000000    -0.138000000     3.448000000
O     0.030000000     5.285000000    -2.130000000
H    -0.705000000     5.086000000    -2.710000000
H    -0.167000000     4.812000000    -1.322000000
O    -1.037000000     2.313000000    -4.007000000
H    -1.182000000     1.380000000    -4.162000000
H    -1.836000000     2.610000000    -3.570000000
O    -5.567000000     1.180000000    -0.158000000
H    -6.340000000     0.639000000     0.002000000
H    -4.836000000     0.656000000     0.168000000
O     4.388000000    -2.059000000     2.610000000
H     4.035000000    -2.936000000     2.457000000
H     3.621000000    -1.525000000     2.817000000
O    -0.275000000     4.817000000     0.412000000
H    -0.173000000     4.652000000     1.349000000
H    -0.562000000     5.728000000     0.358000000
O    -2.941000000    -1.416000000    -2.130000000
H    -2.829000000    -2.330000000    -2.391000000
H    -2.960000000    -1.441000000    -1.173000000
O     3.709000000    -4.925000000     2.804000000
H     4.571000000    -5.329000000     2.698000000
H     3.707000000    -4.597000000     3.704000000
O     4.453000000    -1.108000000    -5.022000000
H     4.991000000    -0.375000000    -5.324000000
H     3.588000000    -0.940000000    -5.396000000
O    -4.253000000    -0.357000000    -5.720000000
H    -4.421000000     0.098000000    -4.894000000
H    -3.685000000    -1.089000000    -5.480000000
O    -1.527000000     4.431000000     3.113000000
H    -0.640000000     4.472000000     3.470000000
H    -2.062000000     4.912000000     3.744000000
O     2.783000000    -5.285000000     5.632000000
H     2.049000000    -4.686000000     5.493000000
H     2.476000000    -6.124000000     5.287000000
O     3.292000000    -2.848000000    -1.747000000
H     2.998000000    -2.921000000    -2.655000000
H     2.703000000    -3.423000000    -1.258000000
O     1.287000000     3.379000000    -3.764000000
H     0.419000000     3.086000000    -4.043000000
H     1.118000000     3.943000000    -3.009000000
O     1.816000000     1.913000000     7.039000000
H     2.766000000     2.011000000     6.977000000
H     1.468000000     2.536000000     6.401000000
O     3.096000000     6.042000000    -0.315000000
H     2.638000000     6.598000000     0.315000000
H     2.592000000     5.229000000    -0.328000000
O    -2.064000000    -5.031000000    -0.477000000
H    -1.657000000    -4.802000000     0.359000000
H    -2.635000000    -5.771000000    -0.271000000
O    -0.746000000    -7.120000000     1.614000000
H    -0.278000000    -6.492000000     1.065000000
H    -0.065000000    -7.710000000     1.937000000
O    -4.535000000     3.021000000    -1.740000000
H    -5.254000000     3.588000000    -2.019000000
H    -4.916000000     2.473000000    -1.053000000
O    -0.371000000    -4.663000000    -3.674000000
H    -1.209000000    -4.576000000    -3.220000000
H    -0.608000000    -4.859000000    -4.580000000
O     1.243000000     2.866000000     4.239000000
H     2.039000000     2.950000000     3.713000000
H     0.945000000     1.970000000     4.082000000
O     3.714000000     2.950000000     3.270000000
H     4.362000000     2.953000000     2.566000000
H     3.780000000     2.076000000     3.654000000
O     1.286000000    -5.299000000     1.467000000
H     2.090000000    -4.957000000     1.856000000
H     1.298000000    -4.974000000     0.567000000
O    -1.027000000    -3.827000000     2.794000000
H    -0.357000000    -4.472000000     2.568000000
H    -0.536000000    -3.025000000     2.973000000
O    -2.878000000     6.248000000    -1.434000000
H    -3.011000000     5.775000000    -0.613000000
H    -3.454000000     7.010000000    -1.368000000
O     3.220000000    -1.532000000     5.439000000
H     3.038000000    -2.433000000     5.705000000
H     2.867000000    -1.469000000     4.551000000
O     5.727000000    -2.570000000    -0.733000000
H     4.861000000    -2.907000000    -0.963000000
H     5.842000000    -1.802000000    -1.293000000
O    -2.944000000    -4.211000000    -2.746000000
H    -3.658000000    -4.836000000    -2.872000000
H    -2.557000000    -4.456000000    -1.906000000
O     1.910000000    -3.246000000    -4.584000000
H     1.465000000    -2.441000000    -4.848000000
H     1.202000000    -3.839000000    -4.330000000
O     2.910000000     2.893000000    -0.479000000
H     2.690000000     2.078000000    -0.930000000
H     2.236000000     2.982000000     0.196000000
O     2.677000000     0.342000000    -1.592000000
H     3.245000000    -0.427000000    -1.646000000
H     1.862000000     0.012000000    -1.214000000
O     1.250000000    -4.807000000    -1.375000000
H     0.499000000    -4.790000000    -1.967000000
H     1.812000000    -5.501000000    -1.720000000
O     0.492000000    -0.759000000     6.299000000
H     0.477000000     0.152000000     6.591000000
H     1.117000000    -0.768000000     5.574000000
