158
-3032.48443
C    -0.025000000    -1.088000000     0.915000000
H    -0.209000000    -1.937000000     1.568000000
C    -0.904000000    -0.849000000    -0.112000000
H    -1.677000000    -1.586000000    -0.312000000
C    -0.770000000     0.200000000    -0.932000000
H    -1.455000000     0.385000000    -1.774000000
C     0.294000000     1.035000000    -0.705000000
H     0.451000000     1.835000000    -1.424000000
C     1.128000000     0.912000000     0.375000000
H     1.964000000     1.563000000     0.620000000
C     1.030000000    -0.240000000     1.166000000
C     1.868000000    -0.453000000     2.390000000
O     1.419000000    -1.288000000     3.178000000
O     2.965000000     0.166000000     2.498000000
O     7.520000000    -0.814000000     3.118000000
H     7.833000000    -0.419000000     2.305000000
H     8.067000000    -1.591000000     3.234000000
O     3.302000000     2.592000000     3.171000000
H     3.181000000     1.700000000     2.845000000
H     4.239000000     2.760000000     3.068000000
O    -0.869000000     3.985000000    -4.935000000
H    -1.629000000     3.739000000    -4.408000000
H    -0.255000000     4.364000000    -4.306000000
O     2.798000000     2.733000000    -6.445000000
H     2.245000000     2.637000000    -5.670000000
H     2.439000000     3.493000000    -6.904000000
O    -4.701000000     1.082000000    -0.308000000
H    -5.361000000     0.536000000     0.118000000
H    -5.000000000     1.155000000    -1.215000000
O    -6.863000000     2.636000000    -1.813000000
H    -6.388000000     2.270000000    -2.559000000
H    -6.419000000     3.464000000    -1.629000000
O     5.968000000     2.676000000     2.977000000
H     6.925000000     2.649000000     3.012000000
H     5.689000000     2.427000000     3.858000000
O    -3.596000000     2.855000000    -4.083000000
H    -3.563000000     3.069000000    -3.151000000
H    -4.265000000     3.439000000    -4.439000000
O    -3.757000000    -0.918000000    -5.592000000
H    -3.584000000    -1.432000000    -4.803000000
H    -3.069000000    -0.253000000    -5.602000000
O     1.157000000     6.260000000     0.830000000
H     0.451000000     6.254000000     1.475000000
H     1.941000000     6.035000000     1.331000000
O    -0.817000000    -0.826000000     7.374000000
H    -1.410000000    -1.573000000     7.294000000
H    -0.748000000    -0.478000000     6.485000000
O     0.977000000    -3.827000000     3.180000000
H     1.143000000    -2.884000000     3.174000000
H     1.812000000    -4.216000000     3.440000000
O    -6.890000000    -1.597000000    -2.016000000
H    -6.631000000    -0.829000000    -2.525000000
H    -7.610000000    -1.288000000    -1.466000000
O     5.857000000    -2.436000000     0.012000000
H     5.971000000    -2.911000000     0.835000000
H     5.300000000    -1.692000000     0.241000000
O    -3.699000000     2.649000000     1.781000000
H    -4.096000000     1.965000000     1.242000000
H    -3.172000000     2.174000000     2.423000000
O     4.579000000    -0.275000000     6.631000000
H     3.946000000     0.430000000     6.496000000
H     4.126000000    -1.064000000     6.331000000
O     1.063000000     5.336000000    -3.470000000
H     1.753000000     5.553000000    -4.096000000
H     1.352000000     4.517000000    -3.068000000
O     1.444000000    -3.980000000    -2.804000000
H     1.906000000    -4.817000000    -2.781000000
H     1.947000000    -3.412000000    -2.221000000
O     4.528000000     0.059000000     0.288000000
H     4.075000000     0.098000000     1.131000000
H     5.308000000     0.601000000     0.410000000
O     3.577000000    -4.352000000     3.707000000
H     4.021000000    -4.824000000     4.411000000
H     4.239000000    -3.749000000     3.368000000
O    -5.499000000     5.353000000    -1.777000000
H    -4.571000000     5.328000000    -2.009000000
H    -5.942000000     5.600000000    -2.588000000
O     5.120000000    -1.917000000     2.979000000
H     4.577000000    -1.134000000     2.887000000
H     6.011000000    -1.580000000     3.071000000
O     0.727000000     3.222000000     3.379000000
H     0.805000000     4.085000000     3.787000000
H     1.612000000     2.860000000     3.415000000
O     5.200000000     3.025000000     0.105000000
H     5.970000000     2.589000000    -0.259000000
H     5.353000000     3.033000000     1.050000000
O     2.716000000    -2.767000000     8.063000000
H     2.515000000    -2.821000000     7.129000000
H     2.145000000    -3.420000000     8.469000000
O    -5.083000000     0.705000000    -3.266000000
H    -4.604000000     1.473000000    -3.578000000
H    -4.547000000    -0.039000000    -3.541000000
O    -0.539000000     5.794000000    -1.278000000
H     0.134000000     5.828000000    -1.957000000
H    -0.069000000     5.536000000    -0.486000000
O    -6.197000000    -3.477000000     0.977000000
H    -6.154000000    -3.798000000     0.076000000
H    -5.459000000    -3.899000000     1.417000000
O    -1.898000000     1.730000000     3.744000000
H    -1.102000000     2.257000000     3.676000000
H    -1.594000000     0.877000000     4.056000000
O    -1.688000000    -4.917000000     3.544000000
H    -2.230000000    -4.314000000     4.053000000
H    -0.897000000    -4.417000000     3.344000000
O     2.355000000    -1.497000000    -1.731000000
H     1.606000000    -0.927000000    -1.557000000
H     2.724000000    -1.679000000    -0.866000000
O    -2.224000000     1.254000000    -5.898000000
H    -2.184000000     1.608000000    -6.786000000
H    -2.706000000     1.913000000    -5.398000000
O     2.068000000     2.791000000    -3.419000000
H     2.809000000     2.308000000    -3.053000000
H     1.516000000     2.116000000    -3.816000000
O     3.474000000     5.691000000     2.153000000
H     3.442000000     5.986000000     3.063000000
H     3.785000000     4.787000000     2.205000000
O    -3.520000000    -1.560000000    -2.953000000
H    -3.190000000    -0.936000000    -2.306000000
H    -3.002000000    -2.352000000    -2.808000000
O    -2.688000000    -4.870000000    -0.204000000
H    -3.352000000    -4.970000000     0.477000000
H    -1.855000000    -4.982000000     0.255000000
O     2.485000000    -2.410000000     5.363000000
H     3.023000000    -3.171000000     5.142000000
H     2.254000000    -2.027000000     4.517000000
O    -0.131000000    -5.012000000     0.677000000
H    -0.009000000    -5.066000000     1.625000000
H     0.614000000    -4.497000000     0.368000000
O     2.847000000    -5.368000000     1.336000000
H     3.070000000    -5.346000000     2.267000000
H     3.610000000    -5.767000000     0.917000000
O     3.876000000     1.917000000    -1.814000000
H     4.371000000     2.582000000    -1.336000000
H     3.847000000     1.167000000    -1.220000000
O    -2.615000000     3.845000000    -1.634000000
H    -1.827000000     4.368000000    -1.488000000
H    -2.913000000     3.610000000    -0.756000000
O    -0.912000000    -0.913000000     4.481000000
H    -0.024000000    -0.924000000     4.124000000
H    -1.327000000    -1.695000000     4.116000000
O    -3.538000000    -3.186000000     4.597000000
H    -4.040000000    -2.450000000     4.248000000
H    -4.173000000    -3.689000000     5.107000000
O    -1.576000000    -3.724000000    -2.653000000
H    -1.860000000    -3.982000000    -1.776000000
H    -0.655000000    -3.979000000    -2.691000000
O     3.006000000    -1.083000000    -4.388000000
H     2.828000000    -1.271000000    -3.467000000
H     2.203000000    -0.672000000    -4.708000000
O     0.699000000     0.725000000    -4.773000000
H     0.528000000     0.035000000    -5.414000000
H    -0.001000000     1.363000000    -4.915000000
O    -1.644000000    -5.078000000    -5.393000000
H    -0.704000000    -5.004000000    -5.559000000
H    -1.781000000    -4.597000000    -4.577000000
O     3.257000000     2.068000000     6.339000000
H     2.491000000     2.370000000     6.828000000
H     2.893000000     1.647000000     5.560000000
