158
-3027.90228
C    -0.764000000    -0.825000000     0.966000000
H    -1.252000000    -1.529000000     1.635000000
C    -0.447000000    -1.251000000    -0.278000000
H    -0.777000000    -2.202000000    -0.688000000
C     0.308000000    -0.356000000    -1.130000000
H     0.668000000    -0.735000000    -2.148000000
C     0.790000000     0.827000000    -0.667000000
H     1.408000000     1.517000000    -1.236000000
C     0.314000000     1.219000000     0.558000000
H     0.723000000     2.173000000     0.882000000
C    -0.489000000     0.455000000     1.421000000
C    -0.790000000     0.890000000     2.818000000
O    -0.921000000     0.102000000     3.722000000
O    -1.049000000     2.068000000     2.951000000
O     3.169000000     4.224000000    -3.429000000
H     3.396000000     4.798000000    -4.161000000
H     3.873000000     4.356000000    -2.794000000
O     1.240000000     3.803000000     2.657000000
H     0.385000000     3.432000000     2.874000000
H     1.870000000     3.185000000     3.028000000
O     3.593000000     0.472000000    -5.506000000
H     4.092000000    -0.302000000    -5.768000000
H     2.689000000     0.165000000    -5.445000000
O     3.119000000     2.008000000     3.868000000
H     2.827000000     1.990000000     4.779000000
H     4.028000000     1.713000000     3.902000000
O     2.989000000    -5.222000000    -3.518000000
H     3.152000000    -5.777000000    -4.281000000
H     2.057000000    -5.013000000    -3.569000000
O    -4.994000000     4.541000000     0.379000000
H    -5.007000000     5.437000000     0.042000000
H    -4.091000000     4.407000000     0.667000000
O    -3.547000000    -4.869000000     2.513000000
H    -3.780000000    -4.201000000     1.869000000
H    -3.249000000    -4.373000000     3.275000000
O     3.337000000    -2.743000000     2.565000000
H     2.781000000    -1.985000000     2.742000000
H     3.847000000    -2.859000000     3.366000000
O    -3.553000000     1.008000000    -5.586000000
H    -3.447000000     0.700000000    -4.686000000
H    -3.747000000     1.941000000    -5.498000000
O    -0.027000000     4.968000000     0.191000000
H     0.591000000     4.692000000    -0.486000000
H     0.260000000     4.508000000     0.980000000
O    -3.668000000    -1.860000000     7.299000000
H    -4.065000000    -0.998000000     7.170000000
H    -2.813000000    -1.796000000     6.873000000
O    -1.352000000    -6.260000000     1.716000000
H    -0.700000000    -5.743000000     2.189000000
H    -2.137000000    -5.712000000     1.715000000
O     1.006000000     6.318000000     3.885000000
H     0.824000000     5.450000000     3.525000000
H     1.015000000     6.896000000     3.123000000
O    -4.438000000    -0.335000000     1.867000000
H    -4.506000000     0.063000000     2.735000000
H    -4.838000000     0.304000000     1.278000000
O     2.079000000     0.720000000     6.130000000
H     2.141000000    -0.232000000     6.198000000
H     2.077000000     1.025000000     7.038000000
O    -1.729000000    -2.222000000    -4.913000000
H    -1.989000000    -1.455000000    -4.403000000
H    -1.526000000    -1.875000000    -5.782000000
O    -1.969000000     2.486000000    -2.577000000
H    -1.033000000     2.427000000    -2.384000000
H    -2.013000000     2.974000000    -3.400000000
O     1.571000000    -0.979000000     3.507000000
H     0.682000000    -0.678000000     3.693000000
H     2.102000000    -0.182000000     3.523000000
O    -0.282000000     5.099000000     6.146000000
H    -0.559000000     4.213000000     5.911000000
H     0.207000000     5.406000000     5.383000000
O     4.811000000     2.137000000    -1.049000000
H     4.262000000     2.322000000    -1.811000000
H     5.430000000     1.474000000    -1.355000000
O     1.283000000     4.158000000    -5.982000000
H     1.839000000     3.392000000    -5.836000000
H     1.656000000     4.835000000    -5.417000000
O    -4.009000000     4.892000000     4.033000000
H    -4.614000000     5.339000000     3.440000000
H    -4.562000000     4.581000000     4.749000000
O    -2.836000000    -0.196000000    -3.174000000
H    -2.894000000    -0.755000000    -2.399000000
H    -2.593000000     0.664000000    -2.832000000
O    -2.452000000     5.212000000    -1.546000000
H    -2.473000000     4.293000000    -1.811000000
H    -1.608000000     5.315000000    -1.105000000
O    -4.178000000    -2.819000000     0.749000000
H    -4.147000000    -1.991000000     1.229000000
H    -4.131000000    -2.564000000    -0.172000000
O    -3.479000000     0.042000000     4.517000000
H    -3.589000000     0.717000000     5.187000000
H    -2.637000000     0.245000000     4.109000000
O    -2.958000000     2.317000000     6.402000000
H    -2.003000000     2.284000000     6.339000000
H    -3.128000000     2.752000000     7.237000000
O    -1.756000000    -3.386000000     4.287000000
H    -1.748000000    -2.650000000     4.899000000
H    -0.865000000    -3.733000000     4.318000000
O     4.226000000    -4.436000000     0.420000000
H     4.398000000    -3.859000000    -0.324000000
H     3.618000000    -3.943000000     0.971000000
O     0.538000000     3.721000000    -2.268000000
H     0.232000000     4.623000000    -2.362000000
H     1.462000000     3.755000000    -2.515000000
O     1.123000000    -0.856000000    -5.717000000
H     0.666000000    -0.879000000    -4.876000000
H     0.912000000    -1.693000000    -6.128000000
O    -1.510000000     4.469000000     3.392000000
H    -2.348000000     4.533000000     3.850000000
H    -1.396000000     3.532000000     3.231000000
O     3.390000000     4.744000000     1.108000000
H     4.068000000     5.084000000     1.693000000
H     2.702000000     4.431000000     1.695000000
O    -3.235000000    -2.600000000    -1.954000000
H    -3.658000000    -2.790000000    -2.792000000
H    -2.302000000    -2.730000000    -2.122000000
O    -5.517000000    -4.779000000    -1.346000000
H    -4.604000000    -4.538000000    -1.509000000
H    -5.490000000    -5.722000000    -1.185000000
O    -5.778000000    -1.578000000     4.379000000
H    -5.888000000    -0.946000000     5.089000000
H    -4.867000000    -1.475000000     4.106000000
O     0.929000000    -4.015000000     3.630000000
H     1.334000000    -3.192000000     3.358000000
H     1.433000000    -4.289000000     4.396000000
O     3.327000000    -0.185000000     1.107000000
H     2.411000000    -0.257000000     1.378000000
H     3.405000000    -0.787000000     0.367000000
O    -2.660000000     3.229000000     1.006000000
H    -1.983000000     3.768000000     0.598000000
H    -2.201000000     2.748000000     1.695000000
O    -1.162000000    -1.396000000     6.030000000
H    -1.072000000    -0.847000000     5.251000000
H    -1.019000000    -0.797000000     6.763000000
O     5.765000000    -0.151000000    -2.487000000
H     6.371000000    -0.890000000    -2.444000000
H     5.107000000    -0.417000000    -3.129000000
O     4.186000000    -2.851000000    -1.951000000
H     5.010000000    -2.608000000    -2.372000000
H     3.826000000    -3.540000000    -2.509000000
O    -0.775000000    -5.002000000    -2.008000000
H    -1.301000000    -5.749000000    -1.724000000
H    -0.072000000    -4.944000000    -1.360000000
O    -0.167000000    -4.991000000    -4.835000000
H    -0.345000000    -5.218000000    -3.922000000
H    -0.499000000    -4.097000000    -4.928000000
O    -1.988000000     7.038000000     1.963000000
H    -1.577000000     6.894000000     1.110000000
H    -1.644000000     6.336000000     2.516000000
O     4.416000000     5.484000000    -1.502000000
H     4.352000000     6.421000000    -1.317000000
H     3.989000000     5.064000000    -0.755000000
O    -4.266000000    -2.966000000    -4.341000000
H    -4.839000000    -3.257000000    -5.051000000
H    -3.404000000    -2.881000000    -4.748000000
O    -0.322000000     2.378000000     5.585000000
H     0.572000000     2.052000000     5.695000000
H    -0.645000000     1.932000000     4.803000000
