158
-3025.88031
C     0.742000000    -1.338000000     0.166000000
H     1.099000000    -2.336000000     0.406000000
C    -0.325000000    -1.087000000    -0.684000000
H    -0.911000000    -1.902000000    -1.100000000
C    -0.904000000     0.189000000    -0.880000000
H    -1.726000000     0.341000000    -1.464000000
C    -0.336000000     1.253000000    -0.185000000
H    -0.742000000     2.257000000    -0.283000000
C     0.765000000     1.043000000     0.681000000
H     1.219000000     1.887000000     1.193000000
C     1.268000000    -0.232000000     0.961000000
C     2.213000000    -0.467000000     2.105000000
O     2.782000000    -1.543000000     2.333000000
O     2.352000000     0.426000000     2.920000000
O    -6.769000000     1.729000000    -4.269000000
H    -6.392000000     2.299000000    -4.939000000
H    -6.024000000     1.477000000    -3.723000000
O    -2.546000000     4.956000000    -3.014000000
H    -1.844000000     4.583000000    -3.547000000
H    -2.097000000     5.352000000    -2.268000000
O    -2.009000000    -0.797000000     1.743000000
H    -1.399000000    -0.652000000     1.019000000
H    -2.460000000     0.041000000     1.847000000
O    -4.482000000     0.421000000    -3.260000000
H    -4.360000000    -0.509000000    -3.451000000
H    -4.624000000     0.454000000    -2.314000000
O     6.546000000    -0.742000000     1.679000000
H     7.159000000    -0.010000000     1.739000000
H     7.089000000    -1.520000000     1.801000000
O    -1.005000000     1.410000000    -5.068000000
H    -0.200000000     1.373000000    -5.585000000
H    -1.141000000     0.511000000    -4.771000000
O    -1.113000000    -2.762000000     3.861000000
H    -1.225000000    -1.983000000     3.317000000
H    -1.890000000    -2.777000000     4.421000000
O     1.466000000     5.512000000     1.061000000
H     2.071000000     6.208000000     1.316000000
H     1.866000000     4.711000000     1.399000000
O    -1.165000000     1.103000000     5.949000000
H    -0.743000000     0.312000000     6.285000000
H    -0.867000000     1.166000000     5.042000000
O    -3.711000000    -2.479000000     0.403000000
H    -2.983000000    -2.032000000     0.836000000
H    -3.290000000    -3.107000000    -0.184000000
O     0.136000000     1.539000000     3.721000000
H     0.894000000     0.987000000     3.525000000
H     0.347000000     2.385000000     3.326000000
O     1.560000000    -3.371000000     4.046000000
H     2.083000000    -2.830000000     3.454000000
H     0.653000000    -3.169000000     3.817000000
O    -5.900000000    -3.197000000    -3.452000000
H    -4.960000000    -3.059000000    -3.568000000
H    -5.963000000    -3.822000000    -2.730000000
O     4.823000000    -5.063000000     0.496000000
H     4.490000000    -4.881000000    -0.383000000
H     4.943000000    -4.200000000     0.891000000
O     0.199000000     5.221000000     4.889000000
H     0.905000000     5.751000000     4.520000000
H    -0.224000000     4.823000000     4.128000000
O    -4.177000000     1.149000000     2.474000000
H    -3.791000000     0.645000000     3.191000000
H    -5.082000000     1.300000000     2.749000000
O    -3.496000000     3.793000000     1.267000000
H    -3.427000000     2.884000000     1.561000000
H    -4.322000000     3.826000000     0.784000000
O     7.158000000    -0.141000000     4.945000000
H     6.445000000     0.408000000     4.619000000
H     7.189000000    -0.880000000     4.337000000
O     0.226000000     5.869000000    -1.382000000
H    -0.656000000     5.768000000    -1.024000000
H     0.796000000     5.882000000    -0.613000000
O    -0.930000000     4.118000000    -5.188000000
H    -0.862000000     3.177000000    -5.026000000
H    -1.798000000     4.233000000    -5.576000000
O    -5.170000000    -0.107000000    -0.656000000
H    -4.851000000    -0.909000000    -0.242000000
H    -6.123000000    -0.176000000    -0.609000000
O     4.545000000    -2.172000000     0.489000000
H     3.822000000    -2.020000000     1.097000000
H     5.195000000    -1.508000000     0.719000000
O    -0.706000000     4.427000000     2.375000000
H    -0.285000000     4.994000000     1.729000000
H    -1.559000000     4.221000000     1.994000000
O     3.211000000    -2.018000000     7.107000000
H     2.886000000    -1.373000000     6.479000000
H     3.121000000    -1.590000000     7.958000000
O     4.823000000     3.813000000     4.530000000
H     4.763000000     3.725000000     5.482000000
H     5.130000000     2.957000000     4.230000000
O    -3.405000000    -2.256000000    -3.603000000
H    -3.053000000    -2.960000000    -4.149000000
H    -3.252000000    -2.549000000    -2.705000000
O    -5.037000000     4.711000000    -2.059000000
H    -4.241000000     4.637000000    -2.586000000
H    -5.301000000     5.626000000    -2.153000000
O    -3.815000000     2.252000000    -4.917000000
H    -3.945000000     1.730000000    -4.125000000
H    -2.865000000     2.336000000    -4.995000000
O     4.222000000    -4.128000000     5.398000000
H     3.941000000    -3.624000000     6.162000000
H     4.297000000    -3.481000000     4.698000000
O     3.607000000    -2.113000000    -1.976000000
H     3.745000000    -2.013000000    -1.034000000
H     2.732000000    -2.493000000    -2.051000000
O     2.442000000     2.137000000    -2.779000000
H     1.775000000     2.009000000    -2.105000000
H     3.033000000     2.793000000    -2.410000000
O     4.198000000     4.085000000    -1.617000000
H     4.783000000     3.706000000    -0.962000000
H     4.383000000     5.023000000    -1.591000000
O     0.610000000    -5.652000000    -1.237000000
H     0.593000000    -5.917000000    -0.317000000
H     0.172000000    -6.366000000    -1.700000000
O    -6.287000000     2.703000000     0.254000000
H    -6.836000000     3.096000000    -0.425000000
H    -5.860000000     1.965000000    -0.181000000
O     0.772000000    -3.118000000    -4.993000000
H     1.193000000    -3.433000000    -4.193000000
H     0.615000000    -3.909000000    -5.508000000
O     2.897000000     3.154000000     2.212000000
H     3.727000000     3.406000000     2.617000000
H     2.724000000     2.274000000     2.548000000
O    -5.262000000    -0.684000000    -6.224000000
H    -4.935000000    -0.206000000    -5.461000000
H    -4.561000000    -1.299000000    -6.439000000
O     5.280000000     1.240000000     3.496000000
H     4.612000000     0.595000000     3.262000000
H     5.964000000     1.127000000     2.836000000
O    -0.097000000    -1.427000000     6.467000000
H     0.780000000    -1.677000000     6.176000000
H    -0.633000000    -2.204000000     6.305000000
O    -1.386000000    -5.420000000     3.025000000
H    -1.244000000    -5.528000000     3.965000000
H    -1.262000000    -4.483000000     2.871000000
O     1.374000000    -6.093000000     1.565000000
H     1.297000000    -6.807000000     2.198000000
H     1.605000000    -5.329000000     2.093000000
O    -2.131000000     5.384000000    -0.440000000
H    -2.473000000     6.220000000    -0.122000000
H    -2.764000000     4.735000000    -0.134000000
O     4.359000000    -1.678000000     4.341000000
H     3.768000000    -1.167000000     4.894000000
H     3.957000000    -1.650000000     3.472000000
O    -2.130000000    -4.398000000    -1.401000000
H    -1.915000000    -5.222000000    -0.965000000
H    -1.501000000    -4.337000000    -2.121000000
O     1.210000000    -5.325000000     6.062000000
H     1.370000000    -4.647000000     5.405000000
H     0.272000000    -5.266000000     6.244000000
O     4.374000000     0.233000000    -3.098000000
H     3.752000000     0.954000000    -3.190000000
H     3.843000000    -0.505000000    -2.800000000
O     1.974000000    -4.569000000    -3.160000000
H     1.470000000    -4.924000000    -2.427000000
H     2.510000000    -5.303000000    -3.459000000
O     2.526000000     0.128000000     5.656000000
H     2.643000000     0.955000000     6.123000000
H     2.526000000     0.373000000     4.731000000
