158
-3051.92188
C    -0.461000000    -0.972000000     1.024000000
H    -0.848000000    -1.757000000     1.669000000
C    -1.019000000    -0.803000000    -0.214000000
H    -1.780000000    -1.505000000    -0.544000000
C    -0.508000000     0.156000000    -1.126000000
H    -0.949000000     0.161000000    -2.120000000
C     0.509000000     0.968000000    -0.700000000
H     0.911000000     1.729000000    -1.364000000
C     1.145000000     0.862000000     0.527000000
H     1.884000000     1.576000000     0.880000000
C     0.563000000    -0.101000000     1.436000000
C     0.990000000    -0.087000000     2.865000000
O     0.381000000    -0.745000000     3.624000000
O     1.947000000     0.559000000     3.245000000
O    -4.520000000    -3.322000000     1.914000000
H    -5.466000000    -3.445000000     1.834000000
H    -4.416000000    -2.393000000     2.122000000
O     0.866000000     4.658000000    -3.846000000
H     0.117000000     5.205000000    -4.084000000
H     1.407000000     5.221000000    -3.291000000
O     1.779000000     3.281000000     2.818000000
H     1.791000000     2.366000000     3.102000000
H     1.911000000     3.782000000     3.622000000
O     4.432000000     1.407000000     2.448000000
H     3.609000000     0.976000000     2.679000000
H     5.035000000     1.165000000     3.151000000
O     2.847000000    -3.012000000    -5.368000000
H     2.179000000    -3.061000000    -4.684000000
H     3.394000000    -3.784000000    -5.224000000
O    -5.923000000     2.926000000    -3.573000000
H    -4.996000000     2.853000000    -3.345000000
H    -5.928000000     3.392000000    -4.410000000
O     5.000000000     3.875000000     1.090000000
H     5.922000000     3.772000000     0.854000000
H     4.829000000     3.159000000     1.703000000
O    -2.775000000     4.019000000    -6.147000000
H    -3.728000000     4.023000000    -6.237000000
H    -2.563000000     3.122000000    -5.888000000
O    -2.490000000    -5.678000000     1.351000000
H    -2.765000000    -4.802000000     1.078000000
H    -2.602000000    -5.678000000     2.302000000
O    -3.424000000     1.216000000    -5.767000000
H    -3.678000000     0.888000000    -4.904000000
H    -4.254000000     1.360000000    -6.221000000
O    -1.546000000     0.978000000     7.286000000
H    -1.628000000     0.100000000     6.914000000
H    -0.704000000     1.298000000     6.962000000
O     0.639000000    -3.581000000     3.028000000
H     0.243000000    -2.720000000     3.162000000
H     1.499000000    -3.516000000     3.444000000
O    -6.374000000    -0.005000000    -4.042000000
H    -5.909000000     0.480000000    -3.359000000
H    -7.295000000     0.214000000    -3.905000000
O     3.138000000     0.984000000     7.274000000
H     3.585000000     0.973000000     8.120000000
H     2.216000000     0.842000000     7.489000000
O    -1.947000000    -0.532000000    -6.871000000
H    -2.500000000     0.185000000    -6.561000000
H    -1.060000000    -0.173000000    -6.858000000
O    -0.810000000     2.251000000    -3.602000000
H    -0.175000000     2.966000000    -3.633000000
H    -0.323000000     1.484000000    -3.904000000
O     1.146000000    -4.008000000    -2.841000000
H     1.652000000    -4.821000000    -2.843000000
H     1.420000000    -3.557000000    -2.042000000
O     3.177000000    -3.608000000     4.012000000
H     3.882000000    -3.828000000     3.403000000
H     3.385000000    -2.723000000     4.310000000
O     2.975000000    -1.142000000     5.371000000
H     2.632000000    -0.741000000     4.573000000
H     2.836000000    -0.481000000     6.050000000
O    -0.946000000     3.446000000     3.990000000
H    -1.579000000     4.119000000     3.737000000
H    -0.351000000     3.385000000     3.243000000
O     4.302000000     3.437000000    -1.642000000
H     3.897000000     4.234000000    -1.984000000
H     4.639000000     3.689000000    -0.782000000
O    -3.614000000     0.089000000    -3.338000000
H    -3.286000000     0.514000000    -2.546000000
H    -3.956000000    -0.752000000    -3.034000000
O    -3.391000000     2.985000000    -2.407000000
H    -2.538000000     2.680000000    -2.715000000
H    -3.323000000     3.939000000    -2.417000000
O    -4.542000000    -0.705000000    -0.298000000
H    -3.960000000    -0.532000000     0.442000000
H    -4.024000000    -1.256000000    -0.885000000
O    -2.300000000     1.176000000     4.032000000
H    -1.609000000     1.836000000     4.086000000
H    -1.997000000     0.465000000     4.597000000
O    -1.263000000    -5.030000000     4.108000000
H    -1.941000000    -4.470000000     4.485000000
H    -0.809000000    -4.468000000     3.480000000
O     2.058000000    -2.587000000    -0.615000000
H     2.688000000    -2.915000000     0.026000000
H     1.886000000    -1.685000000    -0.342000000
O     1.528000000    -0.474000000    -6.210000000
H     1.654000000    -1.386000000    -5.948000000
H     1.388000000    -0.514000000    -7.156000000
O     1.616000000     5.659000000     0.360000000
H     2.304000000     6.060000000     0.892000000
H     1.472000000     4.802000000     0.762000000
O    -3.742000000    -2.496000000    -2.286000000
H    -3.238000000    -2.523000000    -3.099000000
H    -3.282000000    -3.095000000    -1.698000000
O    -0.399000000    -6.091000000    -0.480000000
H    -0.991000000    -5.914000000     0.252000000
H     0.477000000    -5.982000000    -0.110000000
O     2.253000000    -3.325000000     7.322000000
H     1.862000000    -4.050000000     6.834000000
H     2.357000000    -2.628000000     6.673000000
O    -3.722000000    -0.567000000     2.544000000
H    -4.416000000    -0.518000000     3.202000000
H    -3.005000000    -0.052000000     2.914000000
O     1.545000000    -5.703000000     1.345000000
H     1.529000000    -4.980000000     1.971000000
H     2.434000000    -5.691000000     0.988000000
O     4.751000000     1.079000000    -0.257000000
H     4.342000000     1.851000000    -0.649000000
H     4.632000000     1.197000000     0.685000000
O    -6.649000000    -1.804000000     1.051000000
H    -6.948000000    -1.840000000     0.142000000
H    -5.755000000    -1.466000000     0.995000000
O    -2.461000000     1.886000000     0.473000000
H    -2.937000000     1.805000000    -0.353000000
H    -1.601000000     1.507000000     0.292000000
O    -1.688000000    -1.077000000     5.271000000
H    -0.877000000    -0.984000000     4.771000000
H    -2.033000000    -1.931000000     5.011000000
O    -3.240000000    -3.305000000     4.509000000
H    -3.610000000    -3.537000000     3.658000000
H    -3.994000000    -3.039000000     5.035000000
O     4.091000000    -0.526000000    -4.053000000
H     3.860000000    -1.432000000    -4.258000000
H     3.324000000    -0.181000000    -3.596000000
O    -1.617000000    -3.802000000    -1.176000000
H    -1.360000000    -4.568000000    -1.690000000
H    -0.845000000    -3.236000000    -1.187000000
O    -0.295000000    -3.882000000    -5.292000000
H     0.296000000    -3.818000000    -4.542000000
H    -0.940000000    -3.189000000    -5.149000000
O     5.905000000     1.216000000    -2.826000000
H     5.531000000     0.411000000    -3.186000000
H     5.340000000     1.432000000    -2.084000000
O     6.226000000     0.389000000     4.393000000
H     6.399000000    -0.132000000     3.609000000
H     6.630000000    -0.108000000     5.105000000
O     2.126000000     6.377000000    -2.267000000
H     3.079000000     6.292000000    -2.281000000
H     1.875000000     6.111000000    -1.382000000
O    -2.574000000    -2.413000000    -4.842000000
H    -3.056000000    -3.016000000    -5.407000000
H    -2.504000000    -1.608000000    -5.354000000
O     4.735000000     2.614000000     5.484000000
H     5.422000000     1.995000000     5.234000000
H     4.175000000     2.120000000     6.084000000
O     0.656000000     1.184000000     5.774000000
H     1.567000000     1.398000000     5.570000000
H     0.453000000     0.441000000     5.206000000
