158
-3015.72263
C     1.230000000    -0.709000000     0.170000000
H     2.068000000    -1.366000000     0.389000000
C     0.581000000    -0.630000000    -1.027000000
H     0.998000000    -0.894000000    -1.996000000
C    -0.654000000     0.073000000    -1.037000000
H    -1.149000000     0.211000000    -2.022000000
C    -1.166000000     0.690000000     0.101000000
H    -2.106000000     1.232000000     0.042000000
C    -0.448000000     0.635000000     1.324000000
H    -0.809000000     1.202000000     2.178000000
C     0.728000000    -0.104000000     1.357000000
C     1.532000000    -0.345000000     2.653000000
O     2.696000000    -0.371000000     2.655000000
O     0.908000000    -0.533000000     3.701000000
O    -4.695000000     0.656000000    -2.039000000
H    -5.606000000     0.527000000    -2.303000000
H    -4.475000000    -0.132000000    -1.543000000
O     2.915000000    -6.052000000     2.048000000
H     3.351000000    -6.245000000     2.879000000
H     2.472000000    -5.217000000     2.199000000
O    -2.441000000     3.951000000     3.142000000
H    -2.996000000     3.763000000     2.384000000
H    -2.271000000     3.093000000     3.532000000
O     0.561000000     1.348000000     5.516000000
H     0.874000000     0.556000000     5.080000000
H     1.089000000     2.053000000     5.142000000
O     5.607000000    -1.835000000    -0.341000000
H     5.969000000    -2.559000000    -0.852000000
H     5.808000000    -2.058000000     0.567000000
O     1.817000000     5.028000000    -1.419000000
H     1.034000000     4.688000000    -0.984000000
H     1.787000000     4.647000000    -2.297000000
O    -0.085000000     5.348000000     0.946000000
H    -0.288000000     4.635000000     0.341000000
H    -0.523000000     5.103000000     1.762000000
O     3.789000000    -0.401000000    -1.786000000
H     3.509000000    -1.115000000    -2.360000000
H     4.637000000    -0.686000000    -1.446000000
O     1.027000000     1.022000000    -5.942000000
H     0.867000000     0.088000000    -5.810000000
H     1.182000000     1.108000000    -6.883000000
O     4.325000000    -5.058000000    -0.221000000
H     3.725000000    -4.315000000    -0.166000000
H     4.338000000    -5.422000000     0.664000000
O    -1.123000000     3.696000000    -1.086000000
H    -0.656000000     2.923000000    -1.403000000
H    -2.012000000     3.595000000    -1.426000000
O    -2.242000000    -2.271000000     2.630000000
H    -1.660000000    -2.717000000     3.245000000
H    -2.478000000    -2.946000000     1.993000000
O     3.994000000    -0.014000000    -6.224000000
H     3.239000000    -0.440000000    -5.817000000
H     4.753000000    -0.442000000    -5.829000000
O     3.380000000     0.687000000     6.691000000
H     3.168000000     1.514000000     7.124000000
H     3.739000000     0.947000000     5.842000000
O     1.031000000    -1.573000000    -6.546000000
H     1.629000000    -1.315000000    -7.248000000
H     0.585000000    -2.349000000    -6.885000000
O     2.073000000     3.279000000     4.329000000
H     1.971000000     4.227000000     4.250000000
H     2.093000000     2.964000000     3.426000000
O     2.397000000    -3.477000000     2.616000000
H     2.330000000    -3.352000000     3.562000000
H     2.915000000    -2.732000000     2.311000000
O     6.456000000     2.632000000     1.758000000
H     6.153000000     3.087000000     2.544000000
H     5.692000000     2.142000000     1.454000000
O    -2.831000000    -0.381000000    -3.971000000
H    -3.541000000     0.134000000    -3.589000000
H    -2.704000000    -1.105000000    -3.358000000
O    -1.990000000     1.724000000     4.903000000
H    -2.407000000     2.399000000     5.438000000
H    -1.189000000     1.502000000     5.377000000
O    -0.117000000     6.068000000    -3.715000000
H    -0.396000000     6.230000000    -4.616000000
H    -0.541000000     5.243000000    -3.477000000
O     4.627000000     0.955000000     4.217000000
H     5.384000000     0.423000000     3.973000000
H     3.883000000     0.516000000     3.805000000
O    -3.332000000     2.137000000    -5.460000000
H    -2.462000000     2.450000000    -5.711000000
H    -3.209000000     1.205000000    -5.283000000
O    -3.931000000     3.991000000     0.976000000
H    -3.832000000     4.943000000     1.015000000
H    -3.558000000     3.747000000     0.129000000
O    -2.878000000    -2.346000000    -2.201000000
H    -3.734000000    -2.498000000    -1.799000000
H    -2.249000000    -2.625000000    -1.535000000
O     4.756000000    -3.930000000     5.763000000
H     4.199000000    -3.166000000     5.912000000
H     5.565000000    -3.732000000     6.235000000
O     6.565000000    -1.455000000     4.113000000
H     7.144000000    -1.926000000     4.712000000
H     6.029000000    -2.139000000     3.710000000
O     5.104000000     3.872000000     4.361000000
H     4.903000000     4.655000000     4.873000000
H     4.359000000     3.290000000     4.513000000
O     1.365000000     2.062000000    -1.491000000
H     0.877000000     1.268000000    -1.271000000
H     2.237000000     1.916000000    -1.124000000
O     0.064000000    -0.638000000     7.878000000
H     0.381000000    -0.054000000     7.190000000
H     0.851000000    -0.879000000     8.368000000
O     0.496000000    -5.658000000    -1.798000000
H     1.389000000    -5.496000000    -2.102000000
H    -0.061000000    -5.291000000    -2.484000000
O    -6.184000000     0.175000000     1.620000000
H    -6.243000000     1.130000000     1.611000000
H    -5.437000000    -0.013000000     2.188000000
O     3.241000000     3.336000000     1.725000000
H     3.386000000     3.980000000     1.032000000
H     3.640000000     2.532000000     1.392000000
O     2.543000000    -3.890000000    -2.286000000
H     2.329000000    -3.150000000    -2.854000000
H     3.483000000    -4.022000000    -2.409000000
O     2.156000000     3.103000000    -3.786000000
H     2.167000000     2.444000000    -4.480000000
H     1.705000000     2.676000000    -3.057000000
O     3.773000000    -2.312000000    -4.395000000
H     4.646000000    -2.703000000    -4.418000000
H     3.249000000    -2.860000000    -4.979000000
O    -0.882000000    -4.476000000    -4.621000000
H    -1.573000000    -4.118000000    -4.065000000
H    -1.223000000    -4.393000000    -5.512000000
O    -0.744000000    -2.236000000     5.317000000
H    -0.590000000    -1.847000000     6.178000000
H    -0.121000000    -1.795000000     4.739000000
O    -6.241000000     0.712000000    -5.611000000
H    -5.680000000     0.089000000    -6.073000000
H    -5.639000000     1.384000000    -5.290000000
O     2.793000000    -1.860000000     5.127000000
H     3.166000000    -1.224000000     5.737000000
H     2.357000000    -1.326000000     4.462000000
O    -3.488000000     3.286000000    -2.000000000
H    -4.302000000     3.746000000    -1.794000000
H    -3.772000000     2.436000000    -2.337000000
O    -1.095000000    -3.188000000    -0.071000000
H    -0.765000000    -2.296000000     0.036000000
H    -0.308000000    -3.730000000    -0.124000000
O    -6.834000000     3.549000000     1.187000000
H    -6.738000000     3.282000000     2.101000000
H    -5.938000000     3.706000000     0.888000000
O     1.988000000     2.930000000     7.302000000
H     1.903000000     3.765000000     6.841000000
H     1.322000000     2.369000000     6.905000000
O     5.462000000     2.167000000    -2.686000000
H     4.944000000     1.372000000    -2.555000000
H     5.151000000     2.770000000    -2.011000000
O    -0.728000000     3.032000000    -6.496000000
H    -0.686000000     2.875000000    -7.439000000
H    -0.191000000     2.338000000    -6.114000000
O     4.338000000     0.872000000     0.858000000
H     4.506000000     0.160000000     0.240000000
H     3.789000000     0.476000000     1.535000000
O    -3.737000000    -0.155000000     3.087000000
H    -3.030000000    -0.777000000     2.915000000
H    -3.316000000     0.561000000     3.563000000
