158
-3038.25675
C     0.715000000    -1.337000000     0.277000000
H     1.281000000    -2.249000000     0.449000000
C     0.573000000    -0.798000000    -0.964000000
H     1.004000000    -1.314000000    -1.817000000
C    -0.098000000     0.466000000    -1.108000000
H    -0.236000000     0.845000000    -2.073000000
C    -0.787000000     1.071000000    -0.062000000
H    -1.376000000     1.977000000    -0.175000000
C    -0.664000000     0.505000000     1.191000000
H    -1.091000000     1.062000000     2.022000000
C     0.172000000    -0.667000000     1.387000000
C     0.465000000    -1.100000000     2.812000000
O     0.855000000    -2.256000000     3.011000000
O     0.420000000    -0.294000000     3.730000000
O    -5.766000000     3.358000000    -0.922000000
H    -6.237000000     3.776000000    -1.642000000
H    -6.030000000     2.439000000    -0.965000000
O    -0.971000000     4.420000000    -5.224000000
H    -1.015000000     4.746000000    -6.123000000
H    -1.885000000     4.355000000    -4.948000000
O    -0.710000000    -6.310000000     0.256000000
H    -1.514000000    -5.960000000     0.642000000
H    -0.017000000    -6.032000000     0.854000000
O    -3.393000000    -4.021000000     1.265000000
H    -2.479000000    -4.013000000     1.550000000
H    -3.661000000    -3.102000000     1.295000000
O     4.349000000     2.558000000     1.750000000
H     4.324000000     1.895000000     1.060000000
H     3.799000000     2.198000000     2.447000000
O     4.043000000     3.990000000    -1.156000000
H     3.578000000     3.159000000    -1.054000000
H     3.518000000     4.620000000    -0.663000000
O    -2.272000000    -0.797000000     4.780000000
H    -1.484000000    -0.379000000     4.432000000
H    -2.339000000    -0.472000000     5.678000000
O     1.712000000    -5.059000000    -4.757000000
H     2.304000000    -5.419000000    -5.418000000
H     1.988000000    -4.147000000    -4.661000000
O    -3.418000000     4.577000000    -4.054000000
H    -3.980000000     5.141000000    -4.586000000
H    -3.621000000     4.821000000    -3.151000000
O    -3.351000000     1.619000000    -2.945000000
H    -4.230000000     1.573000000    -3.321000000
H    -2.924000000     2.331000000    -3.422000000
O     5.141000000    -0.426000000    -3.972000000
H     5.101000000    -0.062000000    -4.857000000
H     4.455000000     0.037000000    -3.491000000
O    -1.867000000    -3.616000000     4.880000000
H    -2.216000000    -2.727000000     4.812000000
H    -2.531000000    -4.097000000     5.374000000
O    -3.901000000    -1.193000000     1.488000000
H    -3.866000000    -0.727000000     0.653000000
H    -4.757000000    -0.967000000     1.852000000
O    -0.444000000    -0.720000000    -5.724000000
H    -0.779000000    -1.180000000    -4.955000000
H    -0.101000000    -1.414000000    -6.288000000
O     2.951000000     1.121000000    -3.265000000
H     2.638000000     1.084000000    -2.361000000
H     2.153000000     1.118000000    -3.794000000
O    -3.584000000     3.031000000     1.116000000
H    -3.622000000     2.135000000     0.780000000
H    -4.218000000     3.513000000     0.585000000
O     0.055000000     1.641000000     5.587000000
H     0.750000000     1.507000000     6.231000000
H     0.340000000     1.144000000     4.820000000
O     0.198000000    -2.134000000     5.814000000
H    -0.525000000    -2.713000000     5.576000000
H     0.563000000    -1.849000000     4.977000000
O    -5.054000000     2.683000000     4.015000000
H    -4.994000000     2.763000000     3.063000000
H    -5.890000000     2.242000000     4.167000000
O     0.541000000     5.512000000    -1.474000000
H    -0.251000000     5.999000000    -1.702000000
H     0.456000000     4.683000000    -1.944000000
O     0.635000000     3.418000000    -3.304000000
H     0.063000000     3.971000000    -3.836000000
H     0.671000000     2.586000000    -3.776000000
O     3.439000000    -2.208000000     2.998000000
H     3.632000000    -1.691000000     2.216000000
H     2.493000000    -2.349000000     2.964000000
O     2.840000000     3.607000000    -5.462000000
H     2.223000000     3.090000000    -4.945000000
H     3.612000000     3.048000000    -5.545000000
O    -0.679000000    -2.653000000     8.219000000
H    -0.173000000    -2.211000000     8.901000000
H    -0.183000000    -2.500000000     7.415000000
O    -4.246000000     0.108000000    -0.926000000
H    -4.485000000    -0.684000000    -1.407000000
H    -3.722000000     0.616000000    -1.547000000
O     4.576000000    -4.660000000     3.800000000
H     4.754000000    -5.199000000     3.030000000
H     4.182000000    -3.861000000     3.448000000
O     2.253000000    -3.165000000     7.116000000
H     2.112000000    -2.422000000     7.703000000
H     1.784000000    -2.930000000     6.315000000
O     3.173000000    -6.210000000    -1.104000000
H     2.464000000    -5.570000000    -1.032000000
H     2.744000000    -7.057000000    -0.981000000
O    -3.683000000     0.769000000    -6.073000000
H    -2.761000000     0.712000000    -5.822000000
H    -3.685000000     0.609000000    -7.016000000
O     0.354000000     4.718000000     3.855000000
H    -0.043000000     4.007000000     4.358000000
H    -0.223000000     4.827000000     3.099000000
O     4.238000000    -0.852000000     0.755000000
H     4.990000000    -0.672000000     0.190000000
H     3.816000000    -1.613000000     0.357000000
O     0.943000000     1.443000000    -5.270000000
H     0.957000000     1.820000000    -6.150000000
H     0.411000000     0.653000000    -5.357000000
O    -1.293000000    -5.381000000    -2.288000000
H    -0.828000000    -5.748000000    -1.536000000
H    -2.215000000    -5.398000000    -2.031000000
O    -2.015000000    -2.277000000    -0.983000000
H    -1.867000000    -1.495000000    -0.451000000
H    -1.306000000    -2.871000000    -0.738000000
O     0.986000000    -5.650000000     4.388000000
H     1.908000000    -5.749000000     4.624000000
H     1.002000000    -5.214000000     3.536000000
O    -1.673000000     4.791000000     1.871000000
H    -1.194000000     4.876000000     1.047000000
H    -2.402000000     4.205000000     1.665000000
O    -1.379000000    -1.814000000    -3.464000000
H    -0.663000000    -2.407000000    -3.237000000
H    -1.454000000    -1.230000000    -2.710000000
O     2.580000000     1.500000000     3.499000000
H     2.830000000     1.333000000     4.408000000
H     1.668000000     1.214000000     3.444000000
O    -2.544000000     1.360000000     6.815000000
H    -3.043000000     2.149000000     6.600000000
H    -1.669000000     1.527000000     6.464000000
O    -0.801000000    -4.291000000     2.617000000
H    -1.179000000    -4.235000000     3.495000000
H    -0.141000000    -3.598000000     2.596000000
O     4.187000000    -1.096000000     5.299000000
H     4.062000000    -1.372000000     4.391000000
H     4.243000000    -1.913000000     5.793000000
O    -4.868000000    -1.219000000     4.731000000
H    -3.955000000    -0.945000000     4.637000000
H    -5.005000000    -1.272000000     5.677000000
O     3.117000000    -2.721000000    -3.510000000
H     3.434000000    -2.714000000    -2.607000000
H     3.860000000    -2.411000000    -4.027000000
O    -4.506000000    -2.198000000    -2.492000000
H    -4.368000000    -2.408000000    -3.415000000
H    -3.670000000    -2.400000000    -2.072000000
O     1.275000000    -4.166000000    -1.917000000
H     0.457000000    -4.578000000    -2.196000000
H     1.691000000    -3.885000000    -2.732000000
O     3.761000000    -3.307000000    -0.593000000
H     3.570000000    -4.243000000    -0.661000000
H     4.688000000    -3.235000000    -0.817000000
O     2.487000000     1.437000000     0.053000000
H     2.454000000     0.485000000     0.146000000
H     1.577000000     1.719000000     0.152000000
O     2.872000000     1.099000000     6.301000000
H     3.464000000     1.625000000     6.839000000
H     3.389000000     0.332000000     6.055000000
