158
-3039.37735
C     0.073000000    -1.239000000     0.742000000
H     0.176000000    -2.220000000     1.199000000
C     0.120000000    -1.086000000    -0.618000000
H     0.278000000    -1.991000000    -1.198000000
C    -0.102000000     0.144000000    -1.249000000
H    -0.062000000     0.238000000    -2.327000000
C    -0.171000000     1.247000000    -0.446000000
H    -0.371000000     2.271000000    -0.750000000
C    -0.118000000     1.110000000     0.914000000
H    -0.264000000     1.993000000     1.531000000
C    -0.015000000    -0.150000000     1.534000000
C    -0.139000000    -0.288000000     3.047000000
O     0.141000000    -1.316000000     3.622000000
O    -0.293000000     0.688000000     3.798000000
O    -2.767000000    -4.541000000     2.475000000
H    -3.249000000    -3.765000000     2.760000000
H    -1.848000000    -4.323000000     2.631000000
O     3.542000000     1.898000000     1.634000000
H     4.125000000     2.621000000     1.404000000
H     3.392000000     1.439000000     0.808000000
O     4.275000000     4.373000000    -2.634000000
H     3.962000000     3.471000000    -2.707000000
H     3.484000000     4.907000000    -2.713000000
O    -3.048000000     0.132000000     3.532000000
H    -2.203000000     0.405000000     3.889000000
H    -3.688000000     0.685000000     3.980000000
O    -2.957000000     1.908000000    -2.640000000
H    -2.862000000     1.094000000    -2.146000000
H    -3.573000000     2.430000000    -2.126000000
O    -1.365000000     1.501000000    -7.037000000
H    -0.517000000     1.946000000    -7.050000000
H    -1.219000000     0.724000000    -6.498000000
O     5.863000000     1.555000000    -4.226000000
H     5.757000000     0.857000000    -4.872000000
H     4.970000000     1.770000000    -3.957000000
O    -3.822000000    -2.493000000     3.879000000
H    -4.645000000    -2.387000000     4.357000000
H    -3.590000000    -1.606000000     3.603000000
O    -2.724000000    -2.974000000    -0.417000000
H    -3.577000000    -3.353000000    -0.631000000
H    -2.893000000    -2.036000000    -0.332000000
O     0.832000000     3.139000000    -6.960000000
H     1.605000000     3.700000000    -7.035000000
H     0.134000000     3.730000000    -6.680000000
O    -0.615000000    -0.539000000    -5.025000000
H    -0.666000000    -1.008000000    -4.192000000
H    -0.019000000    -1.063000000    -5.560000000
O     3.664000000     1.807000000    -2.954000000
H     3.622000000     1.102000000    -2.307000000
H     2.751000000     1.971000000    -3.189000000
O    -1.892000000     3.722000000     7.479000000
H    -1.549000000     3.277000000     8.254000000
H    -1.868000000     3.056000000     6.791000000
O    -3.829000000     0.845000000     0.985000000
H    -3.605000000     0.406000000     1.806000000
H    -3.261000000     0.437000000     0.332000000
O    -1.633000000     1.208000000     5.907000000
H    -1.049000000     1.053000000     6.649000000
H    -1.136000000     0.909000000     5.145000000
O    -1.342000000    -1.861000000     5.844000000
H    -2.246000000    -1.906000000     5.532000000
H    -0.821000000    -1.730000000     5.052000000
O     2.112000000    -2.108000000    -7.426000000
H     2.086000000    -1.161000000    -7.286000000
H     1.195000000    -2.380000000    -7.385000000
O    -4.286000000     2.787000000     3.815000000
H    -3.468000000     3.281000000     3.757000000
H    -4.680000000     2.875000000     2.947000000
O    -2.586000000     5.234000000    -1.240000000
H    -3.086000000     5.373000000    -0.436000000
H    -3.200000000     4.798000000    -1.831000000
O    -1.659000000     3.498000000    -4.407000000
H    -1.950000000     2.886000000    -5.083000000
H    -2.025000000     3.150000000    -3.594000000
O     2.555000000    -2.273000000     2.961000000
H     2.773000000    -1.850000000     2.130000000
H     1.673000000    -1.961000000     3.165000000
O     0.060000000     5.298000000    -0.516000000
H    -0.793000000     4.863000000    -0.492000000
H     0.503000000     4.999000000     0.278000000
O     4.449000000     2.023000000     5.130000000
H     5.383000000     1.812000000     5.147000000
H     4.101000000     1.507000000     4.403000000
O    -3.902000000    -0.819000000    -1.625000000
H    -3.740000000    -1.535000000    -2.239000000
H    -4.764000000    -0.483000000    -1.870000000
O    -0.020000000    -3.753000000     7.507000000
H    -0.303000000    -3.352000000     8.329000000
H    -0.307000000    -3.140000000     6.830000000
O    -4.544000000     0.369000000    -5.191000000
H    -4.159000000     0.212000000    -4.329000000
H    -3.891000000     0.039000000    -5.809000000
O    -1.676000000     4.452000000     4.423000000
H    -0.801000000     4.072000000     4.498000000
H    -1.555000000     5.227000000     3.875000000
O     2.427000000    -4.350000000     6.670000000
H     2.017000000    -5.049000000     6.161000000
H     1.692000000    -3.879000000     7.064000000
O     3.725000000    -2.035000000     0.495000000
H     4.623000000    -1.909000000     0.187000000
H     3.568000000    -2.974000000     0.399000000
O     1.049000000     2.256000000    -4.021000000
H     1.266000000     3.101000000    -4.414000000
H     0.103000000     2.173000000    -4.139000000
O     2.093000000     2.595000000     6.728000000
H     2.250000000     3.119000000     7.514000000
H     2.875000000     2.727000000     6.193000000
O     1.161000000     4.360000000     1.954000000
H     1.840000000     3.705000000     1.792000000
H     0.638000000     3.993000000     2.666000000
O    -0.359000000    -4.644000000    -0.009000000
H    -1.204000000    -4.206000000     0.092000000
H    -0.055000000    -4.787000000     0.887000000
O    -4.593000000     3.387000000     1.060000000
H    -4.770000000     3.668000000     0.163000000
H    -4.149000000     2.544000000     0.964000000
O     0.046000000    -4.963000000    -2.844000000
H    -0.174000000    -4.821000000    -1.924000000
H    -0.661000000    -5.517000000    -3.177000000
O     0.807000000     3.085000000     4.298000000
H     1.224000000     3.071000000     5.159000000
H     0.526000000     2.182000000     4.154000000
O     4.561000000    -0.076000000     3.446000000
H     4.184000000     0.514000000     2.794000000
H     4.024000000    -0.867000000     3.392000000
O    -4.110000000     0.400000000     7.157000000
H    -4.976000000     0.741000000     6.936000000
H    -3.500000000     0.993000000     6.717000000
O     2.871000000    -4.853000000     2.949000000
H     2.803000000    -5.197000000     2.058000000
H     2.526000000    -3.962000000     2.888000000
O    -0.166000000    -3.925000000     3.249000000
H     0.278000000    -4.378000000     3.966000000
H    -0.238000000    -3.018000000     3.546000000
O     1.897000000    -1.069000000     6.013000000
H     1.111000000    -1.077000000     5.467000000
H     2.373000000    -1.860000000     5.759000000
O    -3.315000000    -2.767000000    -3.571000000
H    -3.065000000    -2.921000000    -4.482000000
H    -3.209000000    -3.618000000    -3.146000000
O     2.751000000    -4.200000000    -2.588000000
H     3.145000000    -4.743000000    -3.271000000
H     1.825000000    -4.151000000    -2.824000000
O     3.312000000    -4.723000000     0.010000000
H     2.992000000    -4.616000000    -0.886000000
H     3.593000000    -5.637000000     0.056000000
O     3.502000000     0.217000000     7.847000000
H     4.109000000     0.818000000     7.414000000
H     3.002000000    -0.175000000     7.131000000
O     5.326000000    -2.483000000    -3.988000000
H     4.909000000    -3.263000000    -4.354000000
H     4.762000000    -1.760000000    -4.261000000
O     2.920000000     0.240000000    -0.731000000
H     3.398000000    -0.511000000    -0.380000000
H     2.000000000     0.037000000    -0.568000000
O     0.348000000     0.751000000     7.686000000
H     0.901000000     1.501000000     7.466000000
H     0.699000000     0.033000000     7.160000000
