158
-3032.77930
C     1.124000000    -0.906000000    -0.301000000
H     2.038000000    -1.364000000    -0.671000000
C    -0.038000000    -0.823000000    -1.075000000
H    -0.112000000    -1.337000000    -2.030000000
C    -1.006000000     0.072000000    -0.698000000
H    -1.899000000     0.094000000    -1.302000000
C    -0.879000000     0.866000000     0.369000000
H    -1.620000000     1.622000000     0.618000000
C     0.305000000     0.865000000     1.129000000
H     0.369000000     1.457000000     2.038000000
C     1.342000000    -0.092000000     0.840000000
C     2.719000000    -0.093000000     1.504000000
O     3.525000000    -0.881000000     1.139000000
O     2.877000000     0.268000000     2.669000000
O     0.307000000    -6.446000000    -0.960000000
H     0.825000000    -5.879000000    -0.389000000
H     0.320000000    -7.299000000    -0.525000000
O    -5.523000000    -3.233000000    -0.135000000
H    -5.558000000    -4.093000000     0.285000000
H    -5.061000000    -3.388000000    -0.959000000
O    -7.670000000     2.660000000    -1.343000000
H    -7.197000000     2.497000000    -0.527000000
H    -7.421000000     1.932000000    -1.913000000
O    -3.769000000     3.296000000    -1.071000000
H    -4.076000000     4.021000000    -0.526000000
H    -3.687000000     2.559000000    -0.465000000
O     0.517000000    -4.328000000     2.448000000
H     1.213000000    -4.390000000     1.794000000
H     0.912000000    -3.843000000     3.173000000
O    -2.331000000     3.682000000    -4.498000000
H    -2.142000000     3.469000000    -5.412000000
H    -2.287000000     4.638000000    -4.461000000
O    -1.341000000     3.249000000    -1.966000000
H    -2.196000000     3.363000000    -1.550000000
H    -1.545000000     3.017000000    -2.872000000
O     5.871000000    -1.994000000    -3.180000000
H     5.444000000    -1.986000000    -4.037000000
H     5.946000000    -1.070000000    -2.941000000
O    -2.894000000    -1.583000000     1.057000000
H    -2.066000000    -1.104000000     1.031000000
H    -2.833000000    -2.123000000     1.845000000
O    -0.610000000    -0.510000000    -6.891000000
H    -1.236000000    -1.129000000    -7.265000000
H     0.065000000    -1.061000000    -6.495000000
O     2.261000000    -2.931000000     4.493000000
H     2.242000000    -3.286000000     5.382000000
H     1.713000000    -2.148000000     4.536000000
O    -5.268000000    -2.334000000     2.531000000
H    -4.946000000    -2.454000000     1.637000000
H    -4.997000000    -3.128000000     2.992000000
O    -3.950000000     0.797000000     0.332000000
H    -3.676000000    -0.097000000     0.538000000
H    -3.568000000     1.332000000     1.028000000
O     4.283000000    -0.673000000     5.666000000
H     3.601000000    -1.040000000     5.103000000
H     4.926000000    -1.376000000     5.753000000
O     1.418000000    -2.247000000    -5.926000000
H     2.285000000    -1.874000000    -6.089000000
H     1.502000000    -3.167000000    -6.175000000
O     2.006000000     2.778000000     3.577000000
H     2.189000000     3.276000000     2.780000000
H     2.362000000     1.907000000     3.401000000
O     2.342000000    -4.844000000     0.551000000
H     3.036000000    -5.454000000     0.799000000
H     2.705000000    -4.357000000    -0.189000000
O    -6.493000000     1.123000000    -3.235000000
H    -5.565000000     1.358000000    -3.223000000
H    -6.497000000     0.172000000    -3.347000000
O     4.477000000    -2.726000000     2.948000000
H     3.602000000    -2.997000000     3.226000000
H     4.320000000    -2.066000000     2.273000000
O    -4.803000000    -1.079000000    -6.082000000
H    -5.602000000    -1.172000000    -5.564000000
H    -4.098000000    -1.312000000    -5.478000000
O    -2.902000000    -0.189000000     4.583000000
H    -2.627000000    -0.858000000     5.210000000
H    -2.192000000     0.453000000     4.592000000
O    -3.648000000    -0.881000000    -3.256000000
H    -3.730000000     0.039000000    -3.511000000
H    -4.464000000    -1.074000000    -2.794000000
O     6.768000000    -1.221000000     3.250000000
H     6.092000000    -1.895000000     3.174000000
H     6.280000000    -0.405000000     3.363000000
O    -2.032000000    -5.638000000     0.251000000
H    -1.948000000    -4.842000000    -0.275000000
H    -1.439000000    -6.263000000    -0.166000000
O    -3.215000000     3.708000000     4.757000000
H    -3.148000000     4.293000000     5.511000000
H    -3.131000000     4.285000000     3.997000000
O     2.386000000     4.012000000     0.849000000
H     2.138000000     4.914000000     0.650000000
H     2.213000000     3.532000000     0.039000000
O     6.047000000    -4.777000000     2.029000000
H     5.701000000    -3.910000000     2.243000000
H     5.633000000    -5.363000000     2.662000000
O    -8.115000000    -2.847000000    -1.329000000
H    -7.676000000    -3.696000000    -1.377000000
H    -7.402000000    -2.210000000    -1.307000000
O    -2.773000000    -3.600000000    -1.738000000
H    -2.205000000    -2.904000000    -2.069000000
H    -3.440000000    -3.708000000    -2.416000000
O     1.112000000     2.376000000    -1.273000000
H     0.356000000     2.913000000    -1.512000000
H     0.744000000     1.511000000    -1.091000000
O    -4.287000000     3.554000000     1.673000000
H    -5.223000000     3.396000000     1.799000000
H    -4.050000000     4.163000000     2.372000000
O    -0.641000000    -4.947000000    -5.628000000
H    -0.437000000    -5.491000000    -4.868000000
H    -1.180000000    -4.238000000    -5.278000000
O    -6.968000000     2.050000000     1.338000000
H    -6.294000000     1.430000000     1.617000000
H    -7.485000000     2.212000000     2.127000000
O     8.851000000    -0.865000000     1.489000000
H     9.476000000    -0.448000000     2.082000000
H     8.038000000    -0.911000000     1.991000000
O    -2.312000000    -4.119000000     2.598000000
H    -2.669000000    -4.542000000     1.817000000
H    -1.365000000    -4.114000000     2.455000000
O    -5.886000000     0.140000000     3.072000000
H    -5.270000000     0.375000000     3.766000000
H    -5.625000000    -0.743000000     2.809000000
O     5.329000000     1.121000000     3.302000000
H     4.500000000     0.679000000     3.120000000
H     5.601000000     1.477000000     2.456000000
O     1.247000000    -0.434000000     4.723000000
H     0.516000000     0.172000000     4.842000000
H     1.773000000    -0.040000000     4.027000000
O    -4.904000000    -3.925000000    -3.731000000
H    -4.817000000    -4.715000000    -3.198000000
H    -5.524000000    -4.168000000    -4.419000000
O    -4.044000000     1.890000000    -3.182000000
H    -3.534000000     2.445000000    -3.772000000
H    -3.930000000     2.288000000    -2.319000000
O    -1.157000000    -2.309000000    -4.064000000
H    -0.250000000    -2.064000000    -4.248000000
H    -1.655000000    -1.502000000    -4.194000000
O     3.930000000    -3.336000000    -1.375000000
H     4.419000000    -3.058000000    -2.149000000
H     4.039000000    -2.616000000    -0.752000000
O     6.854000000     2.445000000     1.270000000
H     6.382000000     2.056000000     0.534000000
H     7.683000000     2.741000000     0.893000000
O    -0.778000000     1.721000000     4.410000000
H    -1.548000000     2.211000000     4.124000000
H    -0.037000000     2.283000000     4.183000000
O     3.766000000     2.451000000    -1.467000000
H     4.101000000     1.861000000    -0.793000000
H     2.849000000     2.196000000    -1.574000000
O     5.433000000     0.474000000    -0.075000000
H     5.754000000    -0.155000000    -0.722000000
H     4.889000000    -0.048000000     0.515000000
O    -6.269000000    -0.735000000    -0.769000000
H    -5.971000000    -1.446000000    -0.201000000
H    -5.616000000    -0.045000000    -0.651000000
O     3.538000000     2.334000000     5.865000000
H     3.078000000     2.616000000     5.074000000
H     3.669000000     1.393000000     5.742000000
