158
-3061.39362
C     1.207000000    -0.967000000     0.049000000
H     1.889000000    -1.813000000     0.037000000
C     0.375000000    -0.829000000    -1.048000000
H     0.486000000    -1.437000000    -1.941000000
C    -0.605000000     0.159000000    -1.040000000
H    -1.259000000     0.227000000    -1.999000000
C    -0.856000000     0.984000000     0.044000000
H    -1.786000000     1.544000000     0.100000000
C     0.046000000     0.895000000     1.090000000
H    -0.170000000     1.507000000     1.962000000
C     1.089000000    -0.059000000     1.164000000
C     1.810000000    -0.195000000     2.450000000
O     2.804000000    -0.931000000     2.532000000
O     1.395000000     0.299000000     3.481000000
O    -7.167000000     1.355000000    -3.400000000
H    -6.223000000     1.424000000    -3.253000000
H    -7.557000000     1.888000000    -2.707000000
O    -1.140000000    -2.857000000     1.167000000
H    -0.450000000    -2.202000000     1.272000000
H    -0.750000000    -3.529000000     0.609000000
O     0.721000000     2.793000000     3.657000000
H     0.856000000     1.845000000     3.668000000
H    -0.223000000     2.899000000     3.544000000
O    -1.896000000     2.332000000     3.756000000
H    -2.587000000     1.720000000     4.012000000
H    -2.251000000     3.195000000     3.967000000
O     3.543000000     1.045000000     5.093000000
H     3.696000000     0.460000000     5.835000000
H     2.978000000     0.545000000     4.505000000
O     5.476000000    -0.423000000    -1.861000000
H     5.361000000    -1.332000000    -1.583000000
H     5.415000000     0.085000000    -1.052000000
O    -5.868000000    -1.418000000     1.542000000
H    -5.172000000    -1.597000000     0.910000000
H    -5.467000000    -0.825000000     2.178000000
O     1.439000000    -0.851000000    -4.868000000
H     0.565000000    -0.461000000    -4.867000000
H     2.011000000    -0.158000000    -5.198000000
O    -0.104000000     3.290000000     7.250000000
H    -0.191000000     2.398000000     6.913000000
H    -0.930000000     3.715000000     7.019000000
O     4.922000000    -2.999000000    -1.242000000
H     4.883000000    -3.877000000    -1.620000000
H     4.561000000    -3.102000000    -0.361000000
O     2.774000000     3.940000000     1.891000000
H     3.600000000     3.640000000     2.269000000
H     2.102000000     3.597000000     2.480000000
O    -3.756000000    -5.185000000    -4.697000000
H    -3.689000000    -4.401000000    -4.153000000
H    -4.511000000    -5.657000000    -4.345000000
O     1.709000000    -6.140000000    -1.375000000
H     2.535000000    -5.717000000    -1.612000000
H     1.799000000    -7.037000000    -1.696000000
O    -0.858000000    -0.795000000     4.456000000
H    -0.148000000    -0.432000000     3.927000000
H    -0.859000000    -0.264000000     5.253000000
O    -2.646000000     4.284000000    -4.639000000
H    -2.457000000     5.146000000    -4.270000000
H    -3.584000000     4.160000000    -4.493000000
O    -6.297000000     1.445000000     2.374000000
H    -5.506000000     1.811000000     1.979000000
H    -6.996000000     2.043000000     2.108000000
O    -3.311000000    -0.463000000     2.342000000
H    -3.141000000    -0.373000000     1.404000000
H    -2.444000000    -0.435000000     2.747000000
O    -3.251000000    -1.915000000    -3.845000000
H    -4.201000000    -2.029000000    -3.827000000
H    -3.122000000    -1.036000000    -4.200000000
O     2.350000000     3.771000000     5.957000000
H     2.538000000     2.874000000     5.680000000
H     1.519000000     3.707000000     6.427000000
O    -4.308000000     4.685000000    -1.929000000
H    -3.455000000     5.117000000    -1.979000000
H    -4.942000000     5.398000000    -1.995000000
O    -4.838000000     1.221000000    -0.180000000
H    -4.522000000     0.350000000    -0.420000000
H    -4.212000000     1.531000000     0.474000000
O    -0.957000000    -3.362000000    -4.787000000
H    -1.614000000    -2.936000000    -4.236000000
H    -1.462000000    -3.776000000    -5.486000000
O    -5.977000000    -2.188000000    -2.732000000
H    -6.690000000    -1.952000000    -3.325000000
H    -6.213000000    -3.057000000    -2.407000000
O    -0.350000000     0.560000000     6.934000000
H     0.550000000     0.269000000     7.080000000
H    -0.873000000     0.030000000     7.536000000
O    -3.178000000     0.575000000    -4.773000000
H    -3.538000000     1.156000000    -4.102000000
H    -2.520000000     1.106000000    -5.221000000
O     3.007000000    -3.135000000    -4.364000000
H     2.440000000    -2.411000000    -4.628000000
H     3.594000000    -2.753000000    -3.711000000
O    -3.940000000     2.947000000     1.674000000
H    -2.994000000     3.096000000     1.672000000
H    -4.302000000     3.713000000     2.121000000
O     5.505000000    -3.043000000     3.821000000
H     5.646000000    -2.098000000     3.874000000
H     4.691000000    -3.191000000     4.303000000
O    -3.980000000    -1.299000000    -1.026000000
H    -3.127000000    -1.475000000    -1.421000000
H    -4.613000000    -1.591000000    -1.683000000
O     2.754000000    -2.469000000     4.833000000
H     1.969000000    -3.018000000     4.823000000
H     2.690000000    -1.945000000     4.034000000
O    -4.346000000     1.308000000     4.433000000
H    -4.516000000     1.600000000     3.537000000
H    -4.977000000     1.793000000     4.965000000
O    -7.205000000     2.589000000    -0.754000000
H    -7.903000000     1.961000000    -0.569000000
H    -6.433000000     2.224000000    -0.321000000
O    -1.140000000     4.099000000     0.797000000
H    -0.636000000     3.563000000     0.185000000
H    -0.590000000     4.867000000     0.952000000
O     1.360000000    -5.115000000    -4.248000000
H     2.087000000    -4.551000000    -4.513000000
H     0.588000000    -4.553000000    -4.307000000
O    -4.538000000     2.081000000    -2.839000000
H    -4.604000000     1.613000000    -2.007000000
H    -4.440000000     3.000000000    -2.590000000
O     1.288000000     5.599000000     4.031000000
H     0.849000000     4.768000000     3.849000000
H     1.972000000     5.376000000     4.662000000
O    -0.500000000    -5.504000000    -0.092000000
H    -1.082000000    -6.076000000    -0.592000000
H     0.342000000    -5.566000000    -0.542000000
O    -0.811000000     2.396000000    -5.444000000
H    -1.446000000     3.087000000    -5.254000000
H    -0.522000000     2.576000000    -6.338000000
O     2.118000000    -5.126000000     1.905000000
H     1.509000000    -4.921000000     1.196000000
H     2.826000000    -4.490000000     1.805000000
O     6.642000000    -0.507000000     3.825000000
H     6.499000000     0.439000000     3.810000000
H     7.560000000    -0.607000000     4.080000000
O    -4.693000000    -4.579000000    -1.592000000
H    -3.772000000    -4.832000000    -1.648000000
H    -4.823000000    -4.347000000    -0.673000000
O     3.358000000     2.500000000    -0.658000000
H     3.157000000     3.302000000    -0.176000000
H     2.915000000     2.610000000    -1.500000000
O     0.304000000    -3.622000000     4.473000000
H    -0.343000000    -4.265000000     4.183000000
H    -0.098000000    -2.775000000     4.281000000
O     4.051000000    -2.913000000     1.359000000
H     3.546000000    -2.175000000     1.702000000
H     4.508000000    -3.266000000     2.123000000
O     3.855000000    -0.977000000     7.060000000
H     4.752000000    -1.268000000     7.224000000
H     3.453000000    -1.700000000     6.579000000
O     4.819000000     0.708000000     1.017000000
H     4.098000000     0.249000000     1.446000000
H     4.391000000     1.359000000     0.461000000
O     4.747000000     2.783000000     3.278000000
H     4.332000000     2.144000000     3.857000000
H     5.546000000     2.350000000     2.977000000
O     1.119000000     2.640000000    -2.778000000
H     0.315000000     2.779000000    -3.278000000
H     1.014000000     1.770000000    -2.392000000
