158
-3034.74090
C     1.102000000    -0.740000000     0.376000000
H     1.988000000    -1.353000000     0.523000000
C     0.315000000    -1.010000000    -0.723000000
H     0.537000000    -1.838000000    -1.392000000
C    -0.696000000    -0.124000000    -0.949000000
H    -1.365000000    -0.283000000    -1.850000000
C    -0.932000000     1.007000000    -0.201000000
H    -1.695000000     1.705000000    -0.535000000
C    -0.266000000     1.109000000     1.049000000
H    -0.432000000     1.925000000     1.746000000
C     0.829000000     0.254000000     1.308000000
C     1.586000000     0.231000000     2.558000000
O     2.674000000    -0.299000000     2.573000000
O     1.137000000     0.774000000     3.554000000
O    -3.920000000     0.551000000    -2.328000000
H    -4.627000000     0.012000000    -2.682000000
H    -3.891000000     0.328000000    -1.398000000
O     2.178000000    -4.461000000     1.647000000
H     3.038000000    -4.042000000     1.680000000
H     1.893000000    -4.350000000     0.740000000
O     0.164000000     6.024000000     3.411000000
H     0.873000000     6.237000000     2.804000000
H    -0.559000000     5.749000000     2.848000000
O     0.135000000     3.005000000     4.262000000
H     0.399000000     2.117000000     4.023000000
H     0.959000000     3.478000000     4.375000000
O     1.138000000     1.873000000    -2.197000000
H     0.858000000     1.324000000    -1.464000000
H     1.527000000     2.644000000    -1.785000000
O    -0.241000000     5.197000000     0.421000000
H    -1.181000000     5.078000000     0.561000000
H    -0.172000000     6.034000000    -0.038000000
O     5.309000000    -3.984000000    -0.370000000
H     5.160000000    -3.306000000     0.289000000
H     5.183000000    -3.538000000    -1.207000000
O    -2.450000000     3.767000000    -5.628000000
H    -1.566000000     3.602000000    -5.301000000
H    -2.793000000     4.452000000    -5.055000000
O    -6.775000000    -0.748000000    -2.070000000
H    -7.600000000    -0.585000000    -1.612000000
H    -6.733000000    -0.063000000    -2.737000000
O    -3.273000000    -3.054000000    -1.386000000
H    -3.182000000    -2.573000000    -0.563000000
H    -2.664000000    -3.787000000    -1.303000000
O    -1.173000000    -0.764000000     3.938000000
H    -0.325000000    -0.327000000     4.013000000
H    -1.116000000    -1.259000000     3.121000000
O     5.315000000     2.428000000     6.064000000
H     4.516000000     1.903000000     6.034000000
H     5.976000000     1.839000000     6.426000000
O     4.863000000    -1.148000000     6.268000000
H     5.240000000    -0.999000000     7.135000000
H     5.393000000    -1.852000000     5.893000000
O    -0.004000000    -1.679000000    -4.156000000
H     0.371000000    -2.471000000    -3.770000000
H    -0.808000000    -1.978000000    -4.582000000
O     2.262000000     4.006000000     6.072000000
H     2.252000000     3.050000000     6.111000000
H     2.968000000     4.262000000     6.666000000
O     4.173000000    -2.401000000     1.824000000
H     3.703000000    -1.586000000     2.001000000
H     4.372000000    -2.756000000     2.690000000
O     6.294000000     0.409000000     1.450000000
H     6.917000000    -0.293000000     1.260000000
H     6.027000000     0.254000000     2.356000000
O    -1.551000000    -4.322000000    -4.254000000
H    -2.274000000    -3.804000000    -3.900000000
H    -1.946000000    -4.830000000    -4.963000000
O    -2.916000000    -2.161000000    -3.879000000
H    -3.619000000    -1.687000000    -4.323000000
H    -3.006000000    -1.917000000    -2.958000000
O    -2.439000000     3.881000000     4.576000000
H    -2.734000000     3.755000000     3.674000000
H    -1.486000000     3.814000000     4.529000000
O     4.925000000     0.162000000     3.766000000
H     4.688000000    -0.362000000     4.531000000
H     4.094000000     0.318000000     3.316000000
O    -3.264000000     0.966000000    -5.554000000
H    -3.334000000     1.920000000    -5.528000000
H    -3.591000000     0.679000000    -4.701000000
O    -3.389000000     4.437000000    -0.517000000
H    -3.162000000     5.351000000    -0.687000000
H    -3.343000000     4.016000000    -1.375000000
O    -1.324000000    -5.310000000    -1.576000000
H    -1.315000000    -6.184000000    -1.187000000
H    -1.881000000    -5.398000000    -2.350000000
O     3.105000000    -1.049000000    -2.575000000
H     3.186000000    -0.113000000    -2.753000000
H     2.173000000    -1.180000000    -2.399000000
O    -5.460000000    -1.507000000    -4.936000000
H    -5.932000000    -2.204000000    -4.481000000
H    -5.900000000    -0.702000000    -4.662000000
O     5.106000000     3.460000000     3.601000000
H     5.446000000     3.069000000     4.406000000
H     5.002000000     2.721000000     3.001000000
O     0.039000000     1.492000000     7.037000000
H    -0.166000000     1.975000000     6.236000000
H     0.112000000     2.167000000     7.712000000
O     2.842000000    -2.807000000    -5.711000000
H     2.314000000    -3.336000000    -6.309000000
H     2.413000000    -2.906000000    -4.861000000
O     1.803000000     3.953000000    -0.776000000
H     2.509000000     3.990000000    -0.131000000
H     1.034000000     4.277000000    -0.307000000
O     2.252000000    -1.797000000     7.025000000
H     3.087000000    -1.454000000     6.708000000
H     2.229000000    -2.701000000     6.709000000
O     1.235000000    -4.229000000    -0.759000000
H     1.731000000    -4.064000000    -1.561000000
H     0.382000000    -4.539000000    -1.065000000
O    -5.583000000     2.425000000    -0.144000000
H    -6.361000000     2.545000000    -0.690000000
H    -5.008000000     3.152000000    -0.383000000
O    -3.354000000     0.793000000     2.430000000
H    -3.018000000     0.109000000     1.850000000
H    -3.106000000     0.505000000     3.308000000
O     3.701000000     4.466000000     0.991000000
H     4.542000000     4.921000000     0.951000000
H     3.932000000     3.538000000     1.022000000
O    -0.195000000     3.671000000    -3.765000000
H     0.081000000     3.166000000    -3.000000000
H     0.466000000     4.358000000    -3.849000000
O     1.198000000     0.745000000    -4.828000000
H     0.430000000     0.181000000    -4.921000000
H     1.173000000     1.036000000    -3.917000000
O     3.338000000    -0.351000000    -6.133000000
H     2.569000000    -0.116000000    -5.614000000
H     3.321000000    -1.308000000    -6.167000000
O     1.101000000    -4.079000000    -3.677000000
H     1.631000000    -4.712000000    -4.162000000
H     0.197000000    -4.304000000    -3.899000000
O    -0.582000000    -1.178000000     7.201000000
H    -0.437000000    -0.232000000     7.190000000
H     0.296000000    -1.555000000     7.256000000
O     2.856000000     1.162000000     5.959000000
H     2.615000000     0.525000000     6.633000000
H     2.326000000     0.919000000     5.200000000
O    -0.620000000    -2.995000000     2.061000000
H    -0.143000000    -2.608000000     1.327000000
H    -0.267000000    -3.882000000     2.135000000
O    -3.153000000     3.141000000    -2.868000000
H    -2.271000000     2.909000000    -3.160000000
H    -3.547000000     2.308000000    -2.612000000
O    -3.255000000    -2.220000000     1.320000000
H    -2.535000000    -2.736000000     1.681000000
H    -3.789000000    -1.988000000     2.080000000
O    -3.980000000     3.594000000     2.118000000
H    -3.730000000     4.052000000     1.316000000
H    -3.839000000     2.668000000     1.919000000
O    -6.197000000    -3.352000000    -1.317000000
H    -5.276000000    -3.422000000    -1.571000000
H    -6.476000000    -2.504000000    -1.661000000
O    -0.672000000     1.360000000    -7.736000000
H    -0.708000000     2.177000000    -8.234000000
H    -1.147000000     1.551000000    -6.927000000
O     3.992000000     1.633000000     1.042000000
H     4.855000000     1.219000000     1.029000000
H     3.400000000     0.942000000     1.339000000
