158
-3062.32308
C     1.364000000    -0.551000000     0.150000000
H     2.369000000    -0.966000000     0.145000000
C     0.706000000    -0.360000000    -1.064000000
H     1.210000000    -0.585000000    -2.000000000
C    -0.627000000     0.123000000    -1.086000000
H    -1.210000000     0.197000000    -2.008000000
C    -1.225000000     0.432000000     0.093000000
H    -2.238000000     0.821000000     0.034000000
C    -0.577000000     0.248000000     1.311000000
H    -1.091000000     0.413000000     2.255000000
C     0.777000000    -0.167000000     1.366000000
C     1.495000000    -0.201000000     2.716000000
O     2.005000000    -1.260000000     2.995000000
O     1.472000000     0.672000000     3.544000000
O    -4.892000000    -0.091000000     0.008000000
H    -5.638000000    -0.487000000    -0.441000000
H    -4.184000000    -0.115000000    -0.636000000
O     0.485000000    -4.041000000     1.906000000
H    -0.001000000    -3.532000000     2.555000000
H     0.841000000    -4.780000000     2.399000000
O    -6.766000000     1.067000000    -2.399000000
H    -6.414000000     1.692000000    -1.764000000
H    -7.621000000     1.425000000    -2.637000000
O     1.841000000     5.129000000     1.331000000
H     1.011000000     5.560000000     1.532000000
H     1.898000000     4.413000000     1.963000000
O    -0.879000000     1.884000000     4.652000000
H    -0.058000000     1.497000000     4.349000000
H    -0.671000000     2.245000000     5.514000000
O     4.240000000     1.108000000    -0.177000000
H     3.896000000     0.674000000    -0.958000000
H     3.751000000     1.929000000    -0.124000000
O     3.671000000    -2.718000000     1.533000000
H     3.706000000    -3.569000000     1.969000000
H     2.961000000    -2.252000000     1.975000000
O    -2.357000000     3.540000000     1.704000000
H    -2.926000000     2.815000000     1.963000000
H    -1.567000000     3.117000000     1.369000000
O    -1.433000000    -4.886000000    -5.176000000
H    -0.505000000    -5.104000000    -5.260000000
H    -1.508000000    -4.484000000    -4.311000000
O     3.602000000    -5.343000000     3.504000000
H     4.513000000    -5.412000000     3.788000000
H     3.293000000    -4.522000000     3.885000000
O    -2.871000000     2.285000000    -4.170000000
H    -3.310000000     1.794000000    -3.475000000
H    -3.561000000     2.463000000    -4.809000000
O    -5.163000000    -4.034000000    -3.201000000
H    -4.842000000    -3.224000000    -3.598000000
H    -4.457000000    -4.310000000    -2.616000000
O    -2.534000000    -2.919000000     0.779000000
H    -2.501000000    -3.299000000    -0.099000000
H    -1.616000000    -2.833000000     1.036000000
O    -1.037000000    -2.147000000    -5.371000000
H    -0.424000000    -2.669000000    -5.889000000
H    -0.974000000    -1.266000000    -5.742000000
O     3.396000000    -1.746000000     6.872000000
H     3.257000000    -0.832000000     6.624000000
H     3.953000000    -1.701000000     7.649000000
O    -3.523000000    -1.271000000    -4.744000000
H    -2.649000000    -1.576000000    -4.987000000
H    -4.108000000    -1.700000000    -5.369000000
O     6.225000000    -3.504000000     2.271000000
H     6.427000000    -3.918000000     3.111000000
H     5.861000000    -2.651000000     2.506000000
O     0.289000000     3.342000000     6.807000000
H    -0.028000000     4.244000000     6.847000000
H     0.842000000     3.248000000     7.583000000
O    -0.515000000    -2.519000000     3.702000000
H    -0.994000000    -1.870000000     4.217000000
H     0.246000000    -2.045000000     3.366000000
O     4.336000000     1.961000000     3.486000000
H     4.078000000     2.883000000     3.493000000
H     3.537000000     1.487000000     3.716000000
O    -0.915000000    -3.330000000    -2.872000000
H    -0.232000000    -3.044000000    -2.265000000
H    -0.910000000    -2.671000000    -3.566000000
O    -3.015000000    -4.611000000    -1.675000000
H    -2.433000000    -4.328000000    -2.380000000
H    -2.798000000    -5.533000000    -1.541000000
O    -0.345000000     3.252000000    -4.719000000
H    -1.126000000     2.748000000    -4.492000000
H    -0.670000000     4.137000000    -4.884000000
O    -2.264000000    -0.478000000     4.762000000
H    -2.758000000    -0.535000000     3.944000000
H    -1.801000000     0.357000000     4.705000000
O     2.197000000     2.689000000    -4.564000000
H     1.249000000     2.743000000    -4.443000000
H     2.409000000     3.432000000    -5.129000000
O     4.520000000    -0.944000000     3.850000000
H     4.788000000    -0.119000000     3.447000000
H     3.601000000    -1.045000000     3.601000000
O     6.138000000    -2.183000000    -1.222000000
H     5.382000000    -2.770000000    -1.250000000
H     6.772000000    -2.637000000    -0.666000000
O    -4.117000000     0.163000000    -2.628000000
H    -5.041000000     0.412000000    -2.620000000
H    -4.049000000    -0.478000000    -3.336000000
O    -6.176000000     3.213000000    -0.922000000
H    -6.593000000     3.958000000    -1.355000000
H    -5.239000000     3.400000000    -0.974000000
O     5.904000000    -0.461000000     1.150000000
H     5.200000000     0.182000000     1.073000000
H     5.806000000    -1.017000000     0.378000000
O     2.685000000    -3.089000000     4.699000000
H     3.157000000    -2.617000000     5.386000000
H     2.274000000    -2.402000000     4.175000000
O     3.563000000     3.341000000     5.888000000
H     3.341000000     3.820000000     6.687000000
H     4.072000000     3.963000000     5.369000000
O     4.157000000    -4.107000000    -0.797000000
H     3.879000000    -3.750000000     0.047000000
H     3.341000000    -4.261000000    -1.272000000
O     2.813000000     3.362000000    -0.628000000
H     2.270000000     3.981000000    -0.139000000
H     3.259000000     3.899000000    -1.282000000
O     1.002000000    -3.955000000    -0.934000000
H     1.243000000    -3.031000000    -0.881000000
H     0.621000000    -4.154000000    -0.079000000
O    -3.628000000    -0.926000000     2.650000000
H    -4.531000000    -1.158000000     2.435000000
H    -3.162000000    -0.974000000     1.815000000
O    -0.425000000     3.774000000    -1.188000000
H     0.283000000     3.144000000    -1.056000000
H    -0.167000000     4.264000000    -1.969000000
O     3.403000000     0.590000000    -3.222000000
H     2.900000000     1.326000000    -3.571000000
H     4.169000000     0.531000000    -3.793000000
O     1.736000000    -1.669000000    -4.214000000
H     2.418000000    -2.118000000    -4.713000000
H     2.144000000    -0.850000000    -3.934000000
O     1.871000000    -5.048000000     6.458000000
H     1.902000000    -4.349000000     5.804000000
H     2.758000000    -5.408000000     6.465000000
O    -3.170000000     3.503000000     5.037000000
H    -3.210000000     3.211000000     5.947000000
H    -2.612000000     2.857000000     4.602000000
O     2.296000000     0.733000000     6.126000000
H     2.700000000     1.600000000     6.168000000
H     1.984000000     0.658000000     5.224000000
O    -3.831000000     4.416000000    -0.883000000
H    -3.608000000     4.099000000    -0.007000000
H    -2.985000000     4.563000000    -1.306000000
O    -4.429000000     1.847000000     2.138000000
H    -5.292000000     2.249000000     2.237000000
H    -4.555000000     1.170000000     1.473000000
O     1.177000000     5.482000000    -3.109000000
H     1.736000000     4.706000000    -3.072000000
H     1.543000000     6.072000000    -2.449000000
O     6.738000000    -1.674000000     5.129000000
H     6.415000000    -2.067000000     5.940000000
H     5.947000000    -1.437000000     4.646000000
O    -2.260000000     0.622000000    -6.531000000
H    -1.727000000     1.371000000    -6.264000000
H    -2.677000000     0.325000000    -5.722000000
O     1.258000000     3.448000000     3.353000000
H     0.404000000     3.645000000     3.737000000
H     1.436000000     2.545000000     3.615000000
