158
-3069.35347
C     1.296000000    -0.584000000    -0.157000000
H     2.233000000    -1.065000000    -0.424000000
C     0.219000000    -0.981000000    -0.934000000
H     0.312000000    -1.545000000    -1.858000000
C    -0.958000000    -0.301000000    -0.680000000
H    -1.798000000    -0.538000000    -1.352000000
C    -1.110000000     0.637000000     0.397000000
H    -2.016000000     1.225000000     0.514000000
C    -0.054000000     0.869000000     1.197000000
H    -0.063000000     1.574000000     2.024000000
C     1.180000000     0.255000000     0.929000000
C     2.409000000     0.572000000     1.718000000
O     3.323000000    -0.253000000     1.805000000
O     2.485000000     1.627000000     2.365000000
O    -5.713000000     1.600000000    -0.453000000
H    -5.466000000     1.137000000     0.348000000
H    -5.523000000     0.979000000    -1.156000000
O     2.214000000    -3.681000000     0.057000000
H     2.196000000    -4.264000000    -0.702000000
H     1.661000000    -4.115000000     0.706000000
O     3.029000000     6.041000000     0.926000000
H     2.537000000     5.226000000     0.828000000
H     3.837000000     5.893000000     0.433000000
O     0.757000000     1.662000000     4.478000000
H     1.603000000     1.903000000     4.102000000
H     0.384000000     2.490000000     4.779000000
O    -2.827000000     1.930000000     3.422000000
H    -1.997000000     1.488000000     3.600000000
H    -2.574000000     2.793000000     3.095000000
O     5.554000000     1.093000000     1.627000000
H     4.795000000     0.612000000     1.956000000
H     5.204000000     1.946000000     1.369000000
O     4.458000000    -2.306000000     0.628000000
H     3.754000000    -2.918000000     0.413000000
H     4.011000000    -1.558000000     1.025000000
O    -1.035000000     3.835000000    -0.109000000
H    -1.979000000     3.706000000    -0.205000000
H    -0.658000000     3.442000000    -0.896000000
O    -5.404000000    -2.034000000     2.481000000
H    -5.005000000    -1.179000000     2.315000000
H    -4.670000000    -2.648000000     2.462000000
O     3.248000000    -3.777000000     3.627000000
H     3.636000000    -2.903000000     3.585000000
H     3.800000000    -4.254000000     4.247000000
O    -1.741000000     1.613000000    -2.843000000
H    -1.134000000     1.644000000    -2.104000000
H    -1.238000000     1.959000000    -3.581000000
O    -3.476000000    -3.977000000     1.777000000
H    -3.037000000    -4.614000000     2.341000000
H    -2.849000000    -3.259000000     1.694000000
O    -7.001000000    -2.068000000    -1.313000000
H    -7.403000000    -1.352000000    -0.821000000
H    -6.329000000    -1.645000000    -1.847000000
O    -0.795000000    -2.348000000     1.616000000
H    -0.515000000    -1.836000000     0.857000000
H    -0.265000000    -3.144000000     1.577000000
O     0.385000000    -0.618000000    -6.219000000
H     0.801000000    -0.687000000    -7.078000000
H     0.763000000    -1.336000000    -5.711000000
O     3.677000000     1.694000000     7.116000000
H     3.638000000     1.897000000     6.181000000
H     2.876000000     2.073000000     7.477000000
O    -2.383000000    -3.189000000    -3.635000000
H    -2.108000000    -3.251000000    -2.721000000
H    -2.862000000    -2.362000000    -3.686000000
O     6.918000000    -3.593000000     1.782000000
H     6.237000000    -3.214000000     1.227000000
H     6.684000000    -3.319000000     2.669000000
O     2.338000000    -2.884000000     6.139000000
H     3.154000000    -2.793000000     6.630000000
H     2.472000000    -2.357000000     5.351000000
O     0.592000000    -3.381000000    -4.310000000
H     1.191000000    -2.651000000    -4.153000000
H    -0.260000000    -3.059000000    -4.019000000
O    -2.009000000    -4.258000000    -1.108000000
H    -2.464000000    -3.914000000    -0.339000000
H    -1.409000000    -4.915000000    -0.756000000
O     1.208000000     0.086000000     6.620000000
H     1.890000000    -0.429000000     6.189000000
H     0.818000000     0.603000000     5.916000000
O     7.350000000     1.218000000     4.310000000
H     7.829000000     2.026000000     4.123000000
H     6.718000000     1.144000000     3.596000000
O    -3.142000000    -0.660000000    -3.364000000
H    -3.897000000    -0.220000000    -3.752000000
H    -2.424000000    -0.034000000    -3.458000000
O     7.970000000     0.941000000     0.857000000
H     7.036000000     1.035000000     1.045000000
H     8.170000000     0.033000000     1.083000000
O     3.649000000    -1.145000000     4.479000000
H     4.277000000    -0.599000000     4.953000000
H     3.713000000    -0.851000000     3.571000000
O    -4.808000000     0.573000000     1.926000000
H    -4.127000000     0.985000000     2.458000000
H    -5.604000000     1.061000000     2.135000000
O    -1.861000000     4.488000000     2.644000000
H    -1.701000000     5.422000000     2.780000000
H    -1.313000000     4.258000000     1.894000000
O    -3.762000000    -5.667000000    -2.895000000
H    -4.635000000    -5.287000000    -2.795000000
H    -3.176000000    -4.912000000    -2.946000000
O     6.350000000    -1.684000000    -1.538000000
H     5.703000000    -1.954000000    -0.886000000
H     6.887000000    -2.463000000    -1.680000000
O    -1.809000000     0.645000000    -6.219000000
H    -2.356000000     0.441000000    -6.978000000
H    -1.046000000     0.074000000    -6.313000000
O     5.215000000     3.810000000     0.728000000
H     5.167000000     4.051000000     1.653000000
H     6.024000000     4.215000000     0.416000000
O     1.641000000    -5.203000000    -2.258000000
H     1.306000000    -4.391000000    -2.640000000
H     0.959000000    -5.850000000    -2.438000000
O    -0.534000000    -0.939000000     3.953000000
H     0.143000000    -0.267000000     3.871000000
H    -0.689000000    -1.235000000     3.056000000
O     0.835000000     2.303000000    -1.762000000
H     0.961000000     1.470000000    -1.306000000
H     1.703000000     2.707000000    -1.763000000
O     3.008000000     1.536000000    -3.482000000
H     3.069000000     2.196000000    -2.792000000
H     3.773000000     1.698000000    -4.035000000
O     2.710000000    -1.238000000    -3.930000000
H     3.635000000    -1.436000000    -4.074000000
H     2.712000000    -0.384000000    -3.496000000
O    -2.259000000     3.193000000    -5.301000000
H    -1.817000000     3.692000000    -5.988000000
H    -1.916000000     2.304000000    -5.393000000
O     0.829000000     4.190000000     5.616000000
H     0.388000000     4.845000000     5.074000000
H     0.876000000     4.590000000     6.484000000
O     3.923000000     2.274000000     4.523000000
H     4.205000000     3.188000000     4.534000000
H     3.361000000     2.205000000     3.751000000
O    -5.929000000     0.113000000    -2.896000000
H    -6.877000000     0.226000000    -2.972000000
H    -5.583000000     0.417000000    -3.735000000
O     0.939000000    -4.533000000     2.313000000
H     0.811000000    -5.367000000     2.764000000
H     1.709000000    -4.149000000     2.731000000
O    -3.609000000     3.680000000    -0.815000000
H    -3.661000000     3.709000000    -1.770000000
H    -4.367000000     3.159000000    -0.550000000
O    -4.805000000     0.757000000    -5.311000000
H    -4.130000000     1.421000000    -5.170000000
H    -4.981000000     0.790000000    -6.251000000
O     3.364000000     3.382000000    -1.512000000
H     3.912000000     4.027000000    -1.959000000
H     3.723000000     3.338000000    -0.625000000
O    -2.851000000    -4.161000000    -6.405000000
H    -3.700000000    -4.604000000    -6.397000000
H    -2.799000000    -3.728000000    -5.553000000
O     0.695000000     2.109000000    -5.061000000
H     0.609000000     1.293000000    -5.554000000
H     1.375000000     1.926000000    -4.413000000
O     1.634000000     3.712000000     1.150000000
H     0.735000000     3.476000000     0.922000000
H     1.937000000     2.993000000     1.705000000
