158
-3023.45542
C     0.995000000    -0.745000000     0.824000000
H     1.751000000    -1.409000000     1.237000000
C     0.092000000    -1.299000000    -0.085000000
H     0.182000000    -2.370000000    -0.249000000
C    -0.835000000    -0.476000000    -0.804000000
H    -1.541000000    -0.936000000    -1.537000000
C    -0.957000000     0.805000000    -0.520000000
H    -1.627000000     1.393000000    -1.142000000
C    -0.027000000     1.384000000     0.395000000
H     0.002000000     2.456000000     0.573000000
C     0.955000000     0.695000000     1.071000000
C     1.934000000     1.342000000     2.086000000
O     3.021000000     0.883000000     2.393000000
O     1.601000000     2.351000000     2.673000000
O    -5.990000000    -3.871000000    -3.170000000
H    -6.242000000    -2.967000000    -3.356000000
H    -5.308000000    -3.797000000    -2.503000000
O    -2.465000000    -4.149000000     3.126000000
H    -1.980000000    -3.445000000     3.556000000
H    -3.219000000    -4.303000000     3.695000000
O    -6.181000000    -0.344000000    -4.488000000
H    -6.092000000     0.567000000    -4.766000000
H    -5.663000000    -0.840000000    -5.122000000
O    -6.274000000     3.051000000    -1.265000000
H    -5.950000000     2.539000000    -0.524000000
H    -6.841000000     2.446000000    -1.744000000
O    -2.284000000     4.414000000     0.119000000
H    -1.458000000     4.872000000     0.279000000
H    -2.938000000     4.928000000     0.593000000
O    -1.099000000    -1.855000000    -4.104000000
H    -0.550000000    -1.140000000    -3.781000000
H    -1.932000000    -1.743000000    -3.646000000
O    -4.304000000    -1.491000000    -0.791000000
H    -4.021000000    -1.678000000     0.104000000
H    -4.345000000    -0.535000000    -0.834000000
O    -0.847000000     1.515000000    -3.667000000
H    -0.976000000     2.383000000    -3.286000000
H    -0.560000000     1.686000000    -4.564000000
O    -2.730000000     3.306000000    -5.326000000
H    -2.209000000     3.201000000    -6.122000000
H    -3.021000000     2.419000000    -5.112000000
O     0.913000000    -0.611000000     5.069000000
H     0.364000000    -0.032000000     5.597000000
H     1.741000000    -0.139000000     4.978000000
O    -0.824000000    -4.594000000     1.080000000
H    -1.629000000    -4.253000000     1.469000000
H    -0.139000000    -4.366000000     1.709000000
O     1.506000000     3.804000000    -3.062000000
H     0.602000000     3.593000000    -2.830000000
H     1.522000000     4.759000000    -3.118000000
O    -4.930000000     2.835000000     1.543000000
H    -4.299000000     3.394000000     1.997000000
H    -5.432000000     2.421000000     2.245000000
O    -0.633000000     1.474000000     6.133000000
H    -1.032000000     1.943000000     6.866000000
H     0.192000000     1.934000000     5.975000000
O    -3.788000000    -1.263000000     1.958000000
H    -4.580000000    -1.034000000     2.444000000
H    -3.073000000    -0.897000000     2.479000000
O    -3.859000000    -6.116000000    -0.571000000
H    -3.450000000    -6.958000000    -0.771000000
H    -3.332000000    -5.475000000    -1.048000000
O     3.829000000     3.437000000    -1.272000000
H     4.303000000     2.610000000    -1.354000000
H     3.186000000     3.416000000    -1.980000000
O    -3.297000000    -3.750000000    -1.943000000
H    -2.835000000    -3.482000000    -2.738000000
H    -3.633000000    -2.932000000    -1.575000000
O    -0.631000000    -2.765000000     4.781000000
H    -1.114000000    -2.641000000     5.598000000
H    -0.041000000    -2.012000000     4.734000000
O    -3.644000000    -1.302000000    -3.855000000
H    -3.471000000    -1.033000000    -4.757000000
H    -4.466000000    -0.866000000    -3.628000000
O     4.620000000     0.563000000    -1.792000000
H     3.914000000     0.477000000    -2.433000000
H     4.313000000     0.072000000    -1.030000000
O     1.540000000     2.690000000     5.218000000
H     2.366000000     2.916000000     5.647000000
H     1.740000000     2.720000000     4.283000000
O     5.229000000    -0.149000000     1.274000000
H     4.468000000     0.240000000     1.705000000
H     5.832000000     0.583000000     1.147000000
O     3.051000000    -1.457000000     3.692000000
H     2.149000000    -1.615000000     3.970000000
H     3.079000000    -0.523000000     3.486000000
O     2.609000000     0.125000000    -5.202000000
H     3.245000000    -0.571000000    -5.369000000
H     2.154000000    -0.153000000    -4.407000000
O     3.012000000     5.539000000     4.345000000
H     3.639000000     4.847000000     4.555000000
H     3.542000000     6.227000000     3.942000000
O    -1.694000000     0.336000000     3.150000000
H    -1.509000000     0.474000000     2.221000000
H    -1.211000000     1.032000000     3.596000000
O     0.259000000     6.794000000     4.237000000
H     0.985000000     6.456000000     3.713000000
H     0.150000000     6.152000000     4.938000000
O    -4.147000000     1.300000000    -0.378000000
H    -3.354000000     1.776000000    -0.626000000
H    -4.473000000     1.764000000     0.393000000
O     2.689000000    -4.195000000     0.418000000
H     1.982000000    -4.398000000    -0.194000000
H     2.252000000    -4.096000000     1.264000000
O    -2.192000000    -3.139000000    -6.330000000
H    -1.730000000    -3.977000000    -6.350000000
H    -2.016000000    -2.788000000    -5.457000000
O     2.223000000    -3.507000000    -4.641000000
H     2.081000000    -4.453000000    -4.679000000
H     1.417000000    -3.130000000    -4.994000000
O     1.294000000     0.404000000    -2.651000000
H     0.671000000    -0.182000000    -2.221000000
H     0.751000000     1.092000000    -3.036000000
O    -1.208000000     4.036000000    -2.492000000
H    -1.832000000     4.419000000    -3.108000000
H    -1.551000000     4.267000000    -1.629000000
O     5.458000000    -2.479000000     3.130000000
H     4.561000000    -2.284000000     3.399000000
H     5.810000000    -1.636000000     2.844000000
O     1.084000000    -4.390000000     3.090000000
H     1.658000000    -4.989000000     3.568000000
H     0.388000000    -4.177000000     3.712000000
O    -1.232000000     3.595000000     3.062000000
H    -0.310000000     3.443000000     3.267000000
H    -1.306000000     3.399000000     2.128000000
O     0.638000000    -4.770000000    -1.248000000
H     0.165000000    -4.554000000    -0.444000000
H     0.031000000    -4.539000000    -1.952000000
O     7.213000000    -0.100000000     3.607000000
H     8.090000000     0.168000000     3.880000000
H     6.975000000     0.522000000     2.920000000
O     4.917000000     2.628000000     3.278000000
H     5.039000000     2.623000000     4.227000000
H     4.057000000     2.230000000     3.145000000
O     4.281000000     5.665000000     0.162000000
H     3.431000000     5.563000000     0.591000000
H     4.320000000     4.943000000    -0.466000000
O     0.013000000     6.060000000     1.103000000
H     0.779000000     5.521000000     1.299000000
H     0.203000000     6.904000000     1.513000000
O     4.929000000    -2.726000000    -0.242000000
H     4.739000000    -2.082000000     0.441000000
H     4.127000000    -3.244000000    -0.313000000
O    -6.929000000    -2.162000000    -0.630000000
H    -6.083000000    -1.795000000    -0.375000000
H    -6.781000000    -3.107000000    -0.659000000
O     2.112000000     4.804000000     1.743000000
H     1.998000000     3.892000000     2.008000000
H     2.624000000     5.197000000     2.450000000
O     0.177000000     4.882000000     6.130000000
H     0.432000000     4.006000000     5.838000000
H    -0.386000000     4.727000000     6.888000000
O     6.270000000     4.308000000     1.600000000
H     5.599000000     4.615000000     0.989000000
H     5.854000000     3.585000000     2.069000000
O    -3.767000000     1.650000000    -3.103000000
H    -4.028000000     1.238000000    -2.280000000
H    -4.018000000     2.568000000    -3.002000000
