158
-3041.79205
C     1.474000000    -0.267000000    -0.188000000
H     2.514000000    -0.541000000    -0.344000000
C     0.461000000    -0.455000000    -1.120000000
H     0.712000000    -0.786000000    -2.125000000
C    -0.862000000    -0.109000000    -0.858000000
H    -1.731000000    -0.321000000    -1.631000000
C    -1.249000000     0.368000000     0.323000000
H    -2.294000000     0.442000000     0.612000000
C    -0.244000000     0.570000000     1.308000000
H    -0.615000000     0.907000000     2.273000000
C     1.143000000     0.273000000     1.073000000
C     2.148000000     0.462000000     2.111000000
O     3.369000000     0.428000000     1.820000000
O     1.897000000     0.804000000     3.246000000
O    -5.183000000    -2.036000000    -5.172000000
H    -5.851000000    -1.760000000    -5.799000000
H    -4.758000000    -1.223000000    -4.902000000
O    -6.262000000    -3.632000000    -0.359000000
H    -7.020000000    -3.920000000    -0.867000000
H    -5.570000000    -4.253000000    -0.588000000
O     1.392000000    -3.646000000     1.888000000
H     1.558000000    -3.065000000     2.630000000
H     0.513000000    -3.412000000     1.592000000
O     0.373000000     2.970000000     3.827000000
H     0.742000000     2.115000000     3.604000000
H     0.670000000     3.550000000     3.126000000
O    -2.380000000     2.292000000     5.744000000
H    -2.915000000     2.232000000     4.952000000
H    -1.480000000     2.338000000     5.421000000
O     1.864000000     0.115000000     6.135000000
H     2.483000000     0.807000000     6.370000000
H     1.855000000     0.118000000     5.178000000
O     5.079000000    -1.089000000     0.217000000
H     4.373000000    -0.682000000     0.719000000
H     4.715000000    -1.925000000    -0.073000000
O     4.734000000    -0.120000000    -2.504000000
H     4.911000000     0.796000000    -2.291000000
H     4.851000000    -0.585000000    -1.676000000
O     4.202000000     4.472000000     1.951000000
H     4.610000000     3.628000000     1.758000000
H     4.927000000     5.032000000     2.226000000
O     1.582000000    -3.653000000    -2.617000000
H     1.743000000    -2.951000000    -3.248000000
H     1.942000000    -3.322000000    -1.794000000
O    -3.572000000    -0.740000000     3.260000000
H    -4.099000000     0.033000000     3.464000000
H    -3.964000000    -1.092000000     2.461000000
O    -1.195000000    -1.463000000     4.316000000
H    -1.373000000    -1.513000000     5.256000000
H    -1.946000000    -0.992000000     3.955000000
O     1.877000000     3.641000000     6.399000000
H     1.411000000     3.119000000     5.745000000
H     2.535000000     3.044000000     6.756000000
O    -3.231000000     3.197000000    -2.937000000
H    -3.161000000     3.365000000    -1.997000000
H    -3.667000000     3.974000000    -3.288000000
O    -2.831000000     4.451000000    -0.661000000
H    -2.392000000     5.301000000    -0.711000000
H    -3.483000000     4.558000000     0.032000000
O    -4.950000000    -1.757000000     1.051000000
H    -4.679000000    -1.326000000     0.241000000
H    -5.469000000    -2.507000000     0.761000000
O    -1.092000000    -2.643000000     1.212000000
H    -0.756000000    -2.173000000     0.449000000
H    -1.782000000    -2.076000000     1.558000000
O    -2.195000000     1.853000000    -4.986000000
H    -2.460000000     2.480000000    -4.312000000
H    -1.260000000     1.718000000    -4.832000000
O     3.972000000     1.837000000     7.445000000
H     4.807000000     1.579000000     7.836000000
H     4.207000000     2.501000000     6.797000000
O     2.662000000    -1.369000000    -3.804000000
H     3.009000000    -1.413000000    -4.694000000
H     3.256000000    -0.776000000    -3.344000000
O    -3.963000000     4.182000000     3.399000000
H    -3.117000000     4.558000000     3.154000000
H    -4.243000000     4.695000000     4.156000000
O    -4.695000000    -0.921000000    -1.635000000
H    -5.606000000    -1.038000000    -1.905000000
H    -4.249000000    -0.616000000    -2.425000000
O     7.199000000     0.253000000     1.312000000
H     7.177000000     0.304000000     2.267000000
H     6.508000000    -0.372000000     1.089000000
O     4.633000000    -1.708000000     3.487000000
H     4.094000000    -1.087000000     2.997000000
H     5.364000000    -1.185000000     3.815000000
O    -2.563000000    -0.588000000    -6.208000000
H    -2.413000000     0.090000000    -5.549000000
H    -1.788000000    -1.148000000    -6.156000000
O    -4.878000000     1.667000000     3.736000000
H    -4.742000000     2.599000000     3.569000000
H    -5.143000000     1.624000000     4.654000000
O    -4.925000000     0.853000000    -3.972000000
H    -5.578000000     1.206000000    -3.369000000
H    -4.165000000     1.424000000    -3.864000000
O     0.122000000    -5.802000000    -3.780000000
H     0.403000000    -4.892000000    -3.685000000
H     0.467000000    -6.241000000    -3.002000000
O    -6.004000000     2.075000000     0.677000000
H    -5.637000000     2.914000000     0.397000000
H    -5.549000000     1.876000000     1.495000000
O    -1.370000000    -4.059000000     4.355000000
H    -0.987000000    -4.528000000     3.614000000
H    -1.233000000    -3.134000000     4.150000000
O     2.142000000     3.796000000    -1.797000000
H     1.801000000     4.636000000    -1.489000000
H     1.365000000     3.246000000    -1.902000000
O     0.001000000    -1.881000000    -6.176000000
H     0.706000000    -1.257000000    -6.347000000
H     0.445000000    -2.722000000    -6.070000000
O     0.401000000     1.298000000    -5.439000000
H     0.410000000     0.920000000    -6.318000000
H     1.266000000     1.095000000    -5.082000000
O     6.269000000    -3.835000000     2.202000000
H     5.357000000    -3.551000000     2.261000000
H     6.760000000    -3.162000000     2.672000000
O     1.100000000     4.975000000     1.796000000
H     2.045000000     5.126000000     1.758000000
H     0.814000000     5.016000000     0.883000000
O     5.586000000    -1.915000000    -4.170000000
H     5.236000000    -1.108000000    -3.793000000
H     6.278000000    -1.622000000    -4.764000000
O    -1.067000000    -3.188000000    -2.284000000
H    -1.333000000    -3.409000000    -1.392000000
H    -0.243000000    -3.659000000    -2.412000000
O     5.952000000     0.231000000     5.030000000
H     6.230000000     0.544000000     5.891000000
H     5.161000000     0.734000000     4.837000000
O     5.222000000     2.155000000     1.159000000
H     5.945000000     1.529000000     1.134000000
H     4.489000000     1.659000000     1.524000000
O    -2.761000000    -3.974000000    -4.636000000
H    -2.167000000    -3.417000000    -4.133000000
H    -3.604000000    -3.523000000    -4.595000000
O     1.313000000    -2.484000000     4.234000000
H     0.582000000    -1.882000000     4.370000000
H     1.206000000    -3.150000000     4.912000000
O     3.434000000    -3.273000000    -0.041000000
H     3.727000000    -4.144000000    -0.312000000
H     2.770000000    -3.441000000     0.627000000
O     3.623000000    -2.120000000     6.545000000
H     3.502000000    -1.413000000     5.911000000
H     2.900000000    -2.014000000     7.162000000
O    -6.618000000     1.546000000    -1.995000000
H    -7.334000000     0.919000000    -1.890000000
H    -6.274000000     1.667000000    -1.110000000
O     3.939000000     2.292000000     4.103000000
H     3.340000000     1.670000000     3.691000000
H     4.067000000     2.974000000     3.443000000
O     7.109000000     2.467000000     3.792000000
H     6.838000000     1.551000000     3.860000000
H     6.888000000     2.845000000     4.643000000
O     4.827000000     2.737000000    -1.805000000
H     4.760000000     2.658000000    -0.854000000
H     3.923000000     2.854000000    -2.100000000
O    -0.164000000     2.549000000    -1.937000000
H    -1.051000000     2.909000000    -1.936000000
H    -0.249000000     1.703000000    -1.496000000
