158
-3040.59205
C     1.270000000    -0.390000000     0.657000000
H     2.119000000    -0.888000000     1.118000000
C     0.472000000    -1.143000000    -0.144000000
H     0.582000000    -2.165000000    -0.496000000
C    -0.697000000    -0.615000000    -0.695000000
H    -1.303000000    -1.276000000    -1.303000000
C    -1.104000000     0.680000000    -0.467000000
H    -2.090000000     0.950000000    -0.838000000
C    -0.226000000     1.424000000     0.260000000
H    -0.393000000     2.469000000     0.508000000
C     0.945000000     0.938000000     0.864000000
C     1.773000000     1.745000000     1.803000000
O     2.832000000     1.337000000     2.185000000
O     1.386000000     2.856000000     2.098000000
O    -7.312000000    -1.494000000    -2.943000000
H    -6.782000000    -0.768000000    -3.272000000
H    -6.797000000    -2.276000000    -3.142000000
O    -6.510000000    -3.765000000    -4.564000000
H    -5.680000000    -3.319000000    -4.736000000
H    -6.460000000    -4.570000000    -5.080000000
O    -3.274000000    -3.694000000     3.309000000
H    -3.381000000    -3.230000000     4.139000000
H    -2.824000000    -3.069000000     2.741000000
O    -1.924000000     5.859000000     4.312000000
H    -1.458000000     5.036000000     4.163000000
H    -2.029000000     6.237000000     3.438000000
O     5.006000000     1.625000000     5.642000000
H     5.870000000     1.759000000     6.032000000
H     4.429000000     1.464000000     6.389000000
O     3.139000000    -4.243000000     1.885000000
H     3.586000000    -3.511000000     1.460000000
H     2.847000000    -3.890000000     2.725000000
O    -5.648000000     0.520000000     2.100000000
H    -4.818000000     0.993000000     2.155000000
H    -5.807000000     0.209000000     2.991000000
O    -2.015000000     4.358000000    -0.765000000
H    -1.622000000     5.227000000    -0.692000000
H    -2.577000000     4.282000000     0.006000000
O    -1.609000000    -1.071000000    -5.542000000
H    -1.501000000    -1.542000000    -6.368000000
H    -1.446000000    -0.154000000    -5.767000000
O    -3.006000000    -3.291000000    -0.679000000
H    -2.812000000    -2.390000000    -0.936000000
H    -3.917000000    -3.424000000    -0.942000000
O    -2.697000000     3.063000000    -5.097000000
H    -2.822000000     2.642000000    -4.247000000
H    -2.155000000     3.829000000    -4.907000000
O     1.402000000     0.325000000     5.121000000
H     1.363000000     1.226000000     5.443000000
H     2.303000000     0.219000000     4.815000000
O    -1.156000000    -5.476000000    -0.514000000
H    -1.501000000    -4.592000000    -0.641000000
H    -0.521000000    -5.386000000     0.196000000
O     2.098000000    -2.948000000     4.147000000
H     2.762000000    -2.334000000     4.459000000
H     1.272000000    -2.472000000     4.234000000
O    -4.660000000     3.275000000     1.769000000
H    -4.416000000     4.137000000     1.433000000
H    -5.261000000     3.461000000     2.491000000
O    -3.287000000     3.011000000     5.084000000
H    -3.394000000     3.923000000     5.356000000
H    -2.468000000     3.004000000     4.588000000
O    -4.303000000    -1.179000000     0.467000000
H    -4.954000000    -0.891000000     1.107000000
H    -3.462000000    -1.056000000     0.909000000
O     0.089000000     4.054000000    -2.828000000
H    -0.399000000     4.099000000    -2.006000000
H     0.691000000     3.320000000    -2.709000000
O    -4.161000000    -1.959000000    -4.324000000
H    -3.224000000    -1.872000000    -4.499000000
H    -4.385000000    -1.174000000    -3.824000000
O    -0.600000000    -1.129000000     4.080000000
H     0.126000000    -0.548000000     4.304000000
H    -1.248000000    -0.980000000     4.770000000
O    -6.332000000    -3.281000000     0.443000000
H    -5.841000000    -3.986000000     0.863000000
H    -5.661000000    -2.681000000     0.119000000
O     2.179000000     2.985000000     5.006000000
H     3.007000000     3.133000000     5.461000000
H     2.419000000     2.936000000     4.080000000
O     4.861000000     0.487000000     0.757000000
H     4.098000000     0.898000000     1.164000000
H     5.611000000     0.902000000     1.182000000
O     3.759000000    -0.638000000     4.055000000
H     4.444000000    -0.185000000     4.547000000
H     3.713000000    -0.169000000     3.221000000
O     3.432000000     5.737000000     3.609000000
H     3.976000000     4.969000000     3.432000000
H     3.874000000     6.453000000     3.153000000
O    -1.985000000    -1.152000000     2.011000000
H    -1.396000000    -1.007000000     1.271000000
H    -1.448000000    -0.972000000     2.783000000
O    -5.045000000     1.817000000    -0.406000000
H    -5.441000000     1.076000000     0.053000000
H    -4.735000000     2.393000000     0.292000000
O     2.571000000    -1.473000000    -3.543000000
H     2.610000000    -2.338000000    -3.952000000
H     3.401000000    -1.393000000    -3.073000000
O     1.328000000    -5.069000000    -3.621000000
H     0.790000000    -4.277000000    -3.635000000
H     0.903000000    -5.658000000    -4.245000000
O     6.640000000     3.159000000     1.399000000
H     7.273000000     3.778000000     1.762000000
H     5.826000000     3.348000000     1.864000000
O     1.603000000    -1.259000000    -6.585000000
H     1.920000000    -0.594000000    -7.197000000
H     1.795000000    -0.899000000    -5.719000000
O     1.835000000     1.705000000    -3.216000000
H     2.304000000     1.850000000    -2.394000000
H     1.841000000     0.754000000    -3.330000000
O    -3.285000000     2.475000000    -2.394000000
H    -3.908000000     2.303000000    -1.688000000
H    -2.864000000     3.298000000    -2.147000000
O     4.838000000    -2.423000000    -0.008000000
H     4.969000000    -1.495000000    -0.201000000
H     4.636000000    -2.818000000    -0.857000000
O     0.493000000    -5.302000000     1.741000000
H     1.406000000    -5.108000000     1.527000000
H     0.387000000    -4.992000000     2.640000000
O    -0.580000000     3.509000000     3.883000000
H    -0.166000000     3.275000000     3.053000000
H     0.095000000     3.348000000     4.542000000
O     5.481000000    -2.576000000     3.434000000
H     6.297000000    -2.358000000     2.985000000
H     4.998000000    -1.750000000     3.468000000
O    -0.017000000    -2.711000000    -3.718000000
H    -0.660000000    -2.208000000    -4.218000000
H     0.800000000    -2.223000000    -3.819000000
O     4.574000000     3.145000000     3.202000000
H     4.923000000     2.463000000     3.776000000
H     3.872000000     2.713000000     2.715000000
O    -0.515000000     7.030000000    -0.631000000
H    -0.271000000     7.927000000    -0.858000000
H     0.078000000     6.793000000     0.081000000
O     4.118000000     1.412000000    -1.726000000
H     4.767000000     1.236000000    -2.407000000
H     4.526000000     1.096000000    -0.920000000
O    -3.773000000     5.781000000     1.215000000
H    -3.223000000     6.278000000     1.821000000
H    -4.001000000     6.409000000     0.529000000
O    -0.194000000    -6.327000000    -5.380000000
H    -0.147000000    -6.717000000    -6.253000000
H    -0.943000000    -5.733000000    -5.424000000
O     1.702000000    -6.496000000    -1.212000000
H     1.892000000    -5.885000000    -1.924000000
H     0.909000000    -6.149000000    -0.804000000
O     1.720000000     5.345000000     1.162000000
H     1.536000000     4.453000000     1.456000000
H     2.068000000     5.786000000     1.936000000
O     3.409000000     4.383000000    -0.630000000
H     3.550000000     3.513000000    -0.257000000
H     2.776000000     4.796000000    -0.043000000
O    -5.313000000     0.360000000    -3.306000000
H    -5.003000000     0.774000000    -2.501000000
H    -5.549000000     1.092000000    -3.876000000
O    -4.355000000    -4.963000000     1.169000000
H    -3.974000000    -4.627000000     1.980000000
H    -3.618000000    -5.013000000     0.560000000
