158
-3038.06642
C    -0.042000000    -0.897000000     1.154000000
H    -0.299000000    -1.592000000     1.949000000
C    -0.936000000    -0.821000000     0.112000000
H    -1.777000000    -1.504000000     0.021000000
C    -0.796000000     0.065000000    -0.938000000
H    -1.427000000     0.182000000    -1.882000000
C     0.319000000     0.894000000    -0.993000000
H     0.425000000     1.585000000    -1.826000000
C     1.195000000     0.889000000     0.120000000
H     1.948000000     1.661000000     0.261000000
C     1.029000000    -0.032000000     1.195000000
C     2.043000000    -0.091000000     2.368000000
O     1.701000000    -0.654000000     3.418000000
O     3.061000000     0.519000000     2.354000000
O     1.170000000    -5.176000000     1.814000000
H     0.908000000    -5.909000000     1.256000000
H     0.733000000    -5.343000000     2.649000000
O    -6.268000000    -2.651000000    -3.160000000
H    -5.952000000    -1.779000000    -3.397000000
H    -6.856000000    -2.895000000    -3.875000000
O     3.851000000     1.810000000    -3.327000000
H     4.458000000     1.927000000    -4.058000000
H     3.763000000     2.683000000    -2.947000000
O    -3.105000000    -0.413000000     5.155000000
H    -2.978000000    -1.175000000     5.720000000
H    -3.803000000     0.086000000     5.579000000
O    -5.138000000     2.536000000    -4.784000000
H    -5.415000000     1.921000000    -4.104000000
H    -4.915000000     1.982000000    -5.532000000
O     3.751000000    -4.222000000    -0.378000000
H     3.770000000    -5.018000000    -0.909000000
H     2.829000000    -3.968000000    -0.360000000
O     6.362000000    -1.874000000     0.079000000
H     5.765000000    -1.583000000    -0.610000000
H     5.838000000    -2.471000000     0.613000000
O     5.004000000     1.302000000     0.596000000
H     4.875000000     0.642000000    -0.084000000
H     4.297000000     1.143000000     1.221000000
O     1.206000000     2.627000000     2.818000000
H     1.610000000     1.767000000     2.703000000
H     0.776000000     2.577000000     3.671000000
O     4.258000000     1.151000000     7.673000000
H     4.131000000     2.091000000     7.795000000
H     3.727000000     0.934000000     6.907000000
O    -2.951000000    -1.619000000    -3.682000000
H    -3.490000000    -0.936000000    -3.285000000
H    -2.311000000    -1.142000000    -4.211000000
O     4.256000000     3.474000000    -1.181000000
H     4.518000000     2.856000000    -0.498000000
H     3.381000000     3.762000000    -0.920000000
O     1.458000000     1.263000000    -4.421000000
H     2.323000000     1.472000000    -4.067000000
H     1.079000000     2.114000000    -4.644000000
O     3.112000000    -2.340000000     5.790000000
H     2.882000000    -2.949000000     5.088000000
H     2.715000000    -1.510000000     5.526000000
O    -4.279000000    -3.950000000    -1.233000000
H    -4.329000000    -3.346000000    -0.492000000
H    -4.543000000    -3.425000000    -1.988000000
O     0.470000000     2.515000000     5.383000000
H     0.095000000     2.266000000     6.227000000
H     0.720000000     3.432000000     5.493000000
O    -4.964000000     2.252000000    -1.176000000
H    -5.393000000     2.887000000    -0.604000000
H    -4.317000000     1.823000000    -0.616000000
O     4.508000000     4.858000000     1.578000000
H     5.055000000     4.530000000     0.864000000
H     4.398000000     4.107000000     2.161000000
O     5.185000000    -3.772000000     1.763000000
H     4.529000000    -3.983000000     1.098000000
H     4.697000000    -3.767000000     2.586000000
O     2.564000000    -3.476000000     3.336000000
H     2.127000000    -2.625000000     3.350000000
H     2.136000000    -3.953000000     2.625000000
O     5.029000000    -4.360000000     4.624000000
H     4.075000000    -4.281000000     4.635000000
H     5.199000000    -5.134000000     4.087000000
O    -5.485000000     0.371000000    -2.963000000
H    -5.200000000     1.074000000    -2.380000000
H    -6.437000000     0.348000000    -2.864000000
O     4.713000000    -0.155000000    -1.653000000
H     4.094000000    -0.882000000    -1.720000000
H     4.379000000     0.500000000    -2.266000000
O    -4.925000000    -4.765000000     1.943000000
H    -4.449000000    -5.227000000     2.632000000
H    -4.249000000    -4.280000000     1.468000000
O     1.118000000    -3.324000000    -0.226000000
H     0.219000000    -3.016000000    -0.343000000
H     1.043000000    -4.056000000     0.385000000
O     2.705000000     0.740000000     5.446000000
H     2.485000000     0.384000000     4.586000000
H     1.931000000     1.241000000     5.704000000
O    -2.944000000    -4.031000000    -5.170000000
H    -3.812000000    -4.322000000    -5.450000000
H    -3.045000000    -3.093000000    -5.011000000
O    -3.464000000     4.709000000    -4.712000000
H    -3.980000000     3.907000000    -4.637000000
H    -3.597000000     4.997000000    -5.615000000
O    -2.822000000    -2.091000000     2.952000000
H    -2.953000000    -1.420000000     3.622000000
H    -1.969000000    -2.473000000     3.159000000
O     2.280000000    -1.402000000    -1.980000000
H     2.109000000    -1.947000000    -1.212000000
H     1.589000000    -0.740000000    -1.963000000
O    -0.101000000    -4.930000000     4.339000000
H     0.197000000    -4.037000000     4.513000000
H    -0.972000000    -4.973000000     4.734000000
O    -2.325000000     4.069000000     0.735000000
H    -2.553000000     4.402000000    -0.133000000
H    -2.770000000     3.224000000     0.793000000
O    -2.877000000     5.028000000    -1.669000000
H    -3.163000000     4.707000000    -2.525000000
H    -2.440000000     5.858000000    -1.858000000
O     0.195000000     4.624000000     1.151000000
H    -0.747000000     4.487000000     1.046000000
H     0.458000000     3.980000000     1.808000000
O    -2.890000000     1.404000000     0.608000000
H    -2.503000000     0.654000000     0.156000000
H    -2.475000000     1.404000000     1.471000000
O     7.580000000     2.223000000    -0.305000000
H     6.825000000     1.729000000     0.014000000
H     8.157000000     2.296000000     0.455000000
O     0.413000000    -1.824000000     7.437000000
H     0.432000000    -2.780000000     7.489000000
H    -0.460000000    -1.585000000     7.748000000
O    -2.113000000     1.270000000     3.261000000
H    -1.188000000     1.497000000     3.362000000
H    -2.237000000     0.514000000     3.836000000
O    -1.768000000    -4.279000000    -2.289000000
H    -2.688000000    -4.030000000    -2.202000000
H    -1.538000000    -4.035000000    -3.186000000
O    -4.178000000     0.799000000    -6.650000000
H    -3.333000000     1.242000000    -6.572000000
H    -4.037000000     0.130000000    -7.320000000
O     5.151000000    -0.831000000     3.330000000
H     4.452000000    -0.312000000     2.932000000
H     4.917000000    -0.876000000     4.257000000
O    -0.091000000    -2.148000000     4.717000000
H     0.579000000    -1.621000000     4.280000000
H     0.079000000    -2.026000000     5.651000000
O     1.529000000     4.573000000    -1.136000000
H     1.006000000     4.683000000    -0.342000000
H     2.036000000     5.382000000    -1.203000000
O    -4.687000000    -1.729000000     1.030000000
H    -5.082000000    -0.896000000     1.289000000
H    -3.885000000    -1.785000000     1.550000000
O     7.638000000    -0.655000000     1.994000000
H     6.836000000    -0.671000000     2.516000000
H     7.385000000    -1.041000000     1.155000000
O     4.531000000     2.658000000     3.458000000
H     5.222000000     2.027000000     3.656000000
H     3.767000000     2.120000000     3.250000000
O     0.425000000     4.383000000    -3.673000000
H     0.826000000     4.237000000    -2.817000000
H    -0.407000000     3.911000000    -3.632000000
O    -1.054000000    -0.175000000    -4.904000000
H    -0.799000000     0.064000000    -5.795000000
H    -0.292000000     0.048000000    -4.369000000
