158
-3029.58378
C     1.274000000    -0.078000000    -0.739000000
H     2.155000000    -0.059000000    -1.375000000
C     0.476000000     1.026000000    -0.640000000
H     0.808000000     1.911000000    -1.175000000
C    -0.699000000     1.006000000     0.087000000
H    -1.309000000     1.927000000     0.243000000
C    -1.086000000    -0.143000000     0.725000000
H    -2.089000000    -0.230000000     1.136000000
C    -0.309000000    -1.315000000     0.598000000
H    -0.695000000    -2.243000000     1.013000000
C     0.909000000    -1.266000000    -0.117000000
C     1.742000000    -2.517000000    -0.095000000
O     1.481000000    -3.460000000     0.647000000
O     2.842000000    -2.523000000    -0.664000000
O    -1.472000000    -1.249000000    -3.000000000
H    -2.355000000    -1.589000000    -3.145000000
H    -1.161000000    -1.714000000    -2.223000000
O     3.361000000     3.142000000     0.626000000
H     3.475000000     3.983000000     1.068000000
H     4.070000000     2.595000000     0.966000000
O     0.732000000     6.452000000    -3.419000000
H     1.386000000     6.284000000    -4.097000000
H     1.060000000     5.988000000    -2.649000000
O    -4.002000000     5.007000000    -1.532000000
H    -4.214000000     4.195000000    -1.993000000
H    -3.375000000     5.451000000    -2.104000000
O    -3.276000000     2.179000000    -5.406000000
H    -3.281000000     1.572000000    -6.146000000
H    -2.548000000     1.883000000    -4.859000000
O    -4.752000000    -0.123000000    -0.045000000
H    -5.632000000     0.104000000    -0.348000000
H    -4.773000000    -1.075000000     0.056000000
O     0.717000000    -3.211000000    -4.583000000
H     1.640000000    -3.315000000    -4.351000000
H     0.368000000    -2.619000000    -3.916000000
O    -1.350000000     7.358000000     2.990000000
H    -1.079000000     7.125000000     2.102000000
H    -0.790000000     6.829000000     3.558000000
O     4.613000000    -1.219000000    -4.836000000
H     4.127000000    -0.439000000    -5.104000000
H     4.011000000    -1.690000000    -4.261000000
O     4.468000000    -5.873000000     1.907000000
H     4.301000000    -6.762000000     2.220000000
H     5.416000000    -5.841000000     1.773000000
O    -1.862000000     0.320000000     5.415000000
H    -2.536000000    -0.009000000     4.821000000
H    -1.445000000     1.034000000     4.932000000
O    -0.511000000    -7.028000000     1.811000000
H    -1.309000000    -7.435000000     2.148000000
H    -0.815000000    -6.444000000     1.116000000
O    -1.146000000     4.606000000    -1.112000000
H    -1.307000000     4.587000000    -2.055000000
H    -1.834000000     4.054000000    -0.741000000
O     5.861000000    -5.171000000    -0.572000000
H     6.488000000    -4.508000000    -0.284000000
H     6.391000000    -5.955000000    -0.716000000
O     2.145000000    -7.709000000     1.181000000
H     2.388000000    -6.945000000     0.656000000
H     1.262000000    -7.514000000     1.494000000
O    -2.448000000    -4.194000000     3.362000000
H    -2.572000000    -4.250000000     2.414000000
H    -3.092000000    -3.548000000     3.650000000
O     0.483000000     4.320000000     1.880000000
H     1.116000000     5.001000000     2.108000000
H     1.017000000     3.547000000     1.699000000
O    -4.515000000     1.643000000     2.195000000
H    -3.859000000     2.336000000     2.112000000
H    -4.345000000     1.062000000     1.454000000
O    -4.453000000    -4.606000000    -1.518000000
H    -4.802000000    -5.450000000    -1.233000000
H    -3.884000000    -4.327000000    -0.800000000
O     2.980000000    -2.910000000    -3.208000000
H     3.649000000    -3.593000000    -3.267000000
H     2.852000000    -2.781000000    -2.268000000
O    -6.674000000     4.034000000     0.676000000
H    -6.826000000     3.154000000     0.330000000
H    -5.820000000     4.286000000     0.325000000
O    -2.897000000     3.692000000     1.537000000
H    -2.038000000     4.060000000     1.743000000
H    -3.452000000     4.456000000     1.378000000
O     0.928000000     2.780000000    -5.048000000
H     0.508000000     3.431000000    -5.610000000
H     0.245000000     2.521000000    -4.430000000
O    -0.155000000    -5.724000000    -2.684000000
H     0.036000000    -6.563000000    -2.266000000
H     0.356000000    -5.737000000    -3.493000000
O     2.036000000    -4.488000000     2.966000000
H     2.822000000    -4.979000000     2.724000000
H     1.747000000    -4.082000000     2.149000000
O    -4.203000000    -2.291000000     4.260000000
H    -4.928000000    -1.870000000     3.798000000
H    -4.339000000    -2.062000000     5.179000000
O     2.811000000     3.602000000    -3.246000000
H     2.652000000     4.130000000    -2.464000000
H     1.947000000     3.500000000    -3.646000000
O    -0.304000000    -2.100000000     3.862000000
H    -0.897000000    -1.477000000     4.282000000
H    -0.800000000    -2.918000000     3.831000000
O     4.388000000     1.614000000    -1.388000000
H     4.492000000     2.075000000    -2.220000000
H     3.975000000     2.255000000    -0.809000000
O    -3.955000000     2.260000000    -2.006000000
H    -4.293000000     1.781000000    -1.249000000
H    -4.301000000     1.786000000    -2.763000000
O    -1.417000000     3.713000000     4.809000000
H    -2.052000000     4.048000000     5.442000000
H    -0.914000000     4.483000000     4.544000000
O     5.050000000    -0.829000000     3.095000000
H     5.013000000    -1.596000000     2.523000000
H     4.410000000    -0.222000000     2.722000000
O    -1.194000000     1.375000000    -3.222000000
H    -1.552000000     0.488000000    -3.174000000
H    -1.096000000     1.642000000    -2.308000000
O     1.534000000     4.920000000    -1.162000000
H     0.610000000     4.972000000    -0.915000000
H     2.003000000     4.884000000    -0.329000000
O     0.186000000    -5.585000000     4.543000000
H     0.766000000    -5.138000000     3.926000000
H    -0.696000000    -5.375000000     4.237000000
O     6.849000000    -1.527000000    -3.218000000
H     6.109000000    -1.583000000    -3.822000000
H     6.456000000    -1.608000000    -2.349000000
O     5.030000000    -1.249000000    -1.030000000
H     4.265000000    -1.798000000    -0.857000000
H     4.753000000    -0.367000000    -0.781000000
O     5.461000000    -4.479000000    -3.280000000
H     4.885000000    -5.104000000    -2.841000000
H     6.249000000    -4.456000000    -2.736000000
O    -0.258000000     7.089000000     0.420000000
H    -0.727000000     6.371000000    -0.004000000
H    -0.196000000     7.766000000    -0.254000000
O     3.089000000    -5.526000000    -0.679000000
H     4.003000000    -5.382000000    -0.435000000
H     2.631000000    -4.746000000    -0.364000000
O     7.068000000    -2.806000000     0.082000000
H     6.206000000    -2.719000000     0.488000000
H     7.110000000    -2.084000000    -0.546000000
O     1.511000000     0.002000000     2.725000000
H     1.020000000    -0.692000000     3.165000000
H     1.183000000    -0.004000000     1.826000000
O     4.484000000    -3.129000000     1.423000000
H     4.654000000    -4.070000000     1.460000000
H     3.644000000    -3.055000000     0.970000000
O    -0.351000000    -5.035000000    -0.223000000
H    -0.131000000    -5.068000000    -1.154000000
H     0.388000000    -4.581000000     0.182000000
O     2.504000000    -3.351000000     5.406000000
H     3.092000000    -2.603000000     5.306000000
H     2.563000000    -3.815000000     4.571000000
O    -1.961000000     4.353000000    -3.602000000
H    -1.933000000     3.406000000    -3.467000000
H    -2.793000000     4.507000000    -4.050000000
O    -4.850000000    -2.738000000     1.018000000
H    -5.353000000    -2.398000000     1.758000000
H    -4.522000000    -3.585000000     1.320000000
O    -2.824000000    -4.706000000     0.666000000
H    -1.934000000    -4.773000000     0.319000000
H    -3.104000000    -5.614000000     0.784000000
