158
-3006.12246
C     0.774000000     0.182000000     1.214000000
H     1.213000000     0.239000000     2.206000000
C    -0.337000000    -0.673000000     1.019000000
H    -0.593000000    -1.352000000     1.829000000
C    -0.979000000    -0.743000000    -0.246000000
H    -1.808000000    -1.326000000    -0.362000000
C    -0.596000000     0.140000000    -1.241000000
H    -1.155000000     0.274000000    -2.164000000
C     0.468000000     0.980000000    -0.954000000
H     0.881000000     1.576000000    -1.763000000
C     1.111000000     1.047000000     0.268000000
C     2.426000000     1.805000000     0.476000000
O     3.075000000     1.738000000     1.496000000
O     2.677000000     2.608000000    -0.446000000
O    -4.632000000    -0.405000000     1.337000000
H    -4.279000000    -0.836000000     0.559000000
H    -4.984000000    -1.120000000     1.868000000
O    -5.525000000    -4.483000000     0.338000000
H    -5.443000000    -4.741000000    -0.580000000
H    -6.026000000    -3.668000000     0.314000000
O    -0.029000000    -3.008000000     4.497000000
H     0.538000000    -3.691000000     4.140000000
H     0.572000000    -2.314000000     4.767000000
O    -1.386000000    -0.237000000    -4.770000000
H    -2.015000000    -0.480000000    -4.092000000
H    -1.787000000    -0.533000000    -5.587000000
O    -1.194000000     1.933000000     4.423000000
H    -0.600000000     1.576000000     5.082000000
H    -0.630000000     2.445000000     3.844000000
O     5.788000000     2.283000000     3.443000000
H     6.319000000     2.287000000     4.239000000
H     4.914000000     2.543000000     3.737000000
O     4.447000000    -1.098000000     0.008000000
H     3.514000000    -1.141000000    -0.200000000
H     4.498000000    -0.511000000     0.762000000
O    -2.635000000    -2.008000000     4.596000000
H    -3.096000000    -1.868000000     3.769000000
H    -1.727000000    -2.172000000     4.340000000
O    -4.638000000     1.055000000    -4.859000000
H    -4.259000000     1.631000000    -5.523000000
H    -5.331000000     0.582000000    -5.319000000
O    -6.934000000    -1.630000000    -2.818000000
H    -7.441000000    -1.673000000    -3.629000000
H    -6.432000000    -0.819000000    -2.891000000
O     0.888000000     3.760000000    -4.884000000
H     1.662000000     3.689000000    -4.326000000
H     1.190000000     4.240000000    -5.655000000
O    -0.512000000    -4.481000000     1.003000000
H    -1.383000000    -4.281000000     1.346000000
H     0.068000000    -4.394000000     1.760000000
O    -5.499000000    -4.380000000    -2.512000000
H    -5.260000000    -5.075000000    -3.126000000
H    -6.270000000    -3.969000000    -2.905000000
O     0.228000000    -6.687000000    -0.774000000
H     0.918000000    -7.100000000    -0.256000000
H    -0.275000000    -6.176000000    -0.139000000
O     3.364000000     2.891000000    -3.002000000
H     3.022000000     2.733000000    -2.122000000
H     3.309000000     2.040000000    -3.437000000
O     7.858000000     3.911000000     2.482000000
H     7.203000000     3.216000000     2.549000000
H     7.352000000     4.722000000     2.524000000
O    -5.111000000     0.714000000    -2.314000000
H    -4.895000000     0.960000000    -3.214000000
H    -4.606000000     1.321000000    -1.773000000
O    -3.012000000    -4.116000000     1.924000000
H    -3.495000000    -4.763000000     1.411000000
H    -3.455000000    -4.103000000     2.773000000
O     3.356000000     4.144000000     2.468000000
H     2.663000000     3.979000000     3.108000000
H     3.435000000     3.323000000     1.984000000
O    -1.216000000     2.423000000    -5.423000000
H    -0.421000000     2.883000000    -5.154000000
H    -1.039000000     1.503000000    -5.227000000
O     4.735000000    -2.781000000     4.230000000
H     4.431000000    -2.558000000     5.110000000
H     4.410000000    -2.070000000     3.678000000
O    -1.740000000    -5.624000000    -3.282000000
H    -2.393000000    -6.028000000    -2.710000000
H    -1.228000000    -5.062000000    -2.701000000
O     3.237000000     0.387000000    -4.397000000
H     2.624000000    -0.099000000    -4.949000000
H     3.721000000    -0.290000000    -3.924000000
O     1.244000000     4.032000000     4.188000000
H     1.053000000     3.711000000     5.069000000
H     1.210000000     4.986000000     4.268000000
O     0.986000000    -0.540000000    -6.131000000
H     0.806000000    -1.068000000    -6.908000000
H     0.123000000    -0.363000000    -5.756000000
O     5.044000000     3.908000000    -0.719000000
H     5.268000000     3.630000000    -1.608000000
H     4.124000000     3.665000000    -0.617000000
O     5.678000000     5.484000000     2.647000000
H     4.837000000     5.057000000     2.480000000
H     5.661000000     5.687000000     3.582000000
O     6.113000000     1.588000000     0.943000000
H     5.759000000     1.488000000     1.827000000
H     5.517000000     2.202000000     0.514000000
O    -3.301000000     2.317000000    -0.881000000
H    -2.547000000     2.604000000    -1.396000000
H    -2.941000000     2.129000000    -0.014000000
O     1.726000000    -4.241000000     3.157000000
H     2.289000000    -4.946000000     3.477000000
H     2.206000000    -3.870000000     2.416000000
O     6.313000000     6.525000000     0.169000000
H     6.317000000     6.287000000     1.096000000
H     5.754000000     5.868000000    -0.245000000
O    -0.976000000     4.206000000     1.280000000
H    -1.091000000     3.258000000     1.215000000
H    -0.953000000     4.507000000     0.372000000
O     2.007000000    -1.437000000    -0.976000000
H     1.647000000    -1.173000000    -1.823000000
H     1.285000000    -1.314000000    -0.360000000
O     2.082000000    -3.461000000    -3.220000000
H     1.336000000    -3.721000000    -2.680000000
H     1.784000000    -3.594000000    -4.120000000
O     3.550000000     0.770000000     5.619000000
H     4.477000000     0.759000000     5.857000000
H     3.122000000     0.249000000     6.298000000
O     3.888000000    -0.140000000     3.004000000
H     3.558000000     0.489000000     2.362000000
H     4.074000000     0.386000000     3.781000000
O     7.562000000    -0.640000000     0.773000000
H     6.890000000     0.042000000     0.765000000
H     7.835000000    -0.696000000     1.688000000
O     4.241000000     5.510000000    -3.540000000
H     5.192000000     5.515000000    -3.644000000
H     4.034000000     4.614000000    -3.274000000
O    -6.469000000     1.493000000     0.919000000
H    -5.696000000     0.929000000     0.918000000
H    -6.206000000     2.261000000     0.411000000
O    -6.219000000    -1.974000000     3.141000000
H    -6.761000000    -2.762000000     3.161000000
H    -6.367000000    -1.560000000     3.992000000
O    -1.406000000     4.846000000    -1.403000000
H    -1.975000000     4.519000000    -2.101000000
H    -0.999000000     5.629000000    -1.774000000
O    -3.026000000     1.843000000     1.908000000
H    -2.823000000     1.749000000     2.839000000
H    -3.644000000     1.134000000     1.725000000
O    -4.222000000    -1.457000000    -0.964000000
H    -4.364000000    -0.760000000    -1.605000000
H    -4.820000000    -2.154000000    -1.232000000
O     1.657000000     6.588000000     1.398000000
H     1.730000000     5.911000000     2.071000000
H     1.728000000     6.113000000     0.571000000
O     1.687000000     5.117000000    -0.834000000
H     0.846000000     4.673000000    -0.944000000
H     2.287000000     4.426000000    -0.551000000
O    -0.519000000    -3.380000000    -1.591000000
H    -0.222000000    -3.723000000    -0.748000000
H    -1.460000000    -3.246000000    -1.476000000
O     2.118000000     7.376000000    -2.665000000
H     1.845000000     6.666000000    -2.085000000
H     2.998000000     7.128000000    -2.949000000
O    -3.143000000     3.814000000    -3.243000000
H    -3.404000000     2.909000000    -3.072000000
H    -3.177000000     3.897000000    -4.196000000
