158
-3044.81523
C    -0.500000000    -0.375000000     1.284000000
H    -0.975000000    -0.793000000     2.168000000
C    -1.225000000    -0.428000000     0.115000000
H    -2.180000000    -0.915000000    -0.063000000
C    -0.664000000     0.123000000    -1.024000000
H    -1.112000000     0.150000000    -1.998000000
C     0.631000000     0.650000000    -0.951000000
H     1.099000000     0.940000000    -1.888000000
C     1.415000000     0.499000000     0.208000000
H     2.479000000     0.716000000     0.237000000
C     0.832000000     0.018000000     1.346000000
C     1.726000000    -0.289000000     2.571000000
O     1.314000000    -0.826000000     3.583000000
O     2.815000000     0.316000000     2.640000000
O    -3.800000000    -4.752000000    -0.559000000
H    -3.578000000    -4.513000000    -1.459000000
H    -4.273000000    -5.581000000    -0.642000000
O    -5.656000000    -2.256000000     1.776000000
H    -5.114000000    -2.767000000     2.376000000
H    -6.436000000    -2.794000000     1.640000000
O    -6.135000000    -1.762000000    -1.571000000
H    -6.839000000    -1.135000000    -1.407000000
H    -5.611000000    -1.358000000    -2.263000000
O    -3.714000000    -0.909000000    -6.484000000
H    -3.828000000    -0.730000000    -7.417000000
H    -3.562000000    -1.853000000    -6.437000000
O     1.338000000     4.712000000     5.019000000
H     0.857000000     5.047000000     5.775000000
H     1.503000000     3.792000000     5.228000000
O    -0.686000000    -1.509000000    -4.839000000
H    -0.116000000    -0.741000000    -4.884000000
H    -0.294000000    -2.134000000    -5.448000000
O     4.904000000    -0.372000000     1.421000000
H     4.112000000    -0.181000000     1.925000000
H     5.529000000     0.300000000     1.693000000
O     4.298000000     1.411000000     4.675000000
H     4.689000000     2.201000000     4.301000000
H     3.686000000     1.107000000     4.005000000
O    -0.799000000    -3.571000000     2.013000000
H    -1.624000000    -4.036000000     1.872000000
H    -0.933000000    -3.090000000     2.830000000
O     5.024000000    -2.356000000     6.878000000
H     5.325000000    -1.702000000     7.509000000
H     4.532000000    -1.854000000     6.229000000
O    -1.930000000    -2.255000000    -2.710000000
H    -1.322000000    -2.410000000    -1.987000000
H    -1.376000000    -1.936000000    -3.423000000
O     3.418000000     3.594000000    -3.414000000
H     3.378000000     2.651000000    -3.250000000
H     3.551000000     3.981000000    -2.549000000
O     0.601000000    -2.574000000    -1.457000000
H     0.378000000    -1.705000000    -1.124000000
H     1.146000000    -2.960000000    -0.771000000
O     1.861000000    -4.113000000     4.574000000
H     2.471000000    -3.383000000     4.678000000
H     2.272000000    -4.677000000     3.920000000
O    -5.349000000     1.912000000    -1.264000000
H    -6.170000000     1.447000000    -1.424000000
H    -4.991000000     1.502000000    -0.476000000
O    -1.104000000     3.165000000    -3.821000000
H    -1.745000000     3.313000000    -3.125000000
H    -1.566000000     2.623000000    -4.461000000
O     2.901000000     3.052000000     2.492000000
H     2.761000000     2.177000000     2.130000000
H     2.144000000     3.200000000     3.059000000
O     1.006000000     1.073000000    -4.635000000
H     0.574000000     1.833000000    -4.246000000
H     1.698000000     0.846000000    -4.014000000
O     2.320000000     3.800000000    -5.749000000
H     2.723000000     3.786000000    -4.882000000
H     2.745000000     4.530000000    -6.200000000
O     4.641000000    -0.419000000    -1.351000000
H     5.593000000    -0.322000000    -1.328000000
H     4.406000000    -0.688000000    -0.463000000
O    -3.287000000    -4.419000000    -3.563000000
H    -2.940000000    -3.594000000    -3.223000000
H    -3.409000000    -4.260000000    -4.499000000
O    -5.269000000     3.732000000    -3.496000000
H    -4.458000000     3.234000000    -3.384000000
H    -5.890000000     3.315000000    -2.898000000
O    -0.478000000    -2.258000000     4.816000000
H     0.089000000    -3.020000000     4.703000000
H     0.025000000    -1.529000000     4.453000000
O     3.350000000     0.887000000    -3.544000000
H     3.873000000     0.541000000    -4.267000000
H     3.594000000     0.347000000    -2.792000000
O     0.858000000     2.029000000     4.592000000
H    -0.024000000     1.951000000     4.228000000
H     1.175000000     1.128000000     4.647000000
O    -0.932000000    -5.898000000    -3.303000000
H    -1.709000000    -5.505000000    -3.700000000
H    -0.547000000    -6.426000000    -4.002000000
O    -3.989000000     0.744000000     3.770000000
H    -4.197000000     0.307000000     4.596000000
H    -3.040000000     0.654000000     3.683000000
O     1.245000000    -4.277000000    -3.404000000
H     1.051000000    -3.652000000    -2.705000000
H     0.514000000    -4.894000000    -3.384000000
O     5.705000000     3.424000000     2.946000000
H     4.757000000     3.464000000     2.822000000
H     5.842000000     3.723000000     3.845000000
O    -1.557000000    -1.510000000     7.169000000
H    -2.343000000    -1.032000000     6.903000000
H    -1.076000000    -1.652000000     6.353000000
O     3.925000000     4.530000000    -0.624000000
H     3.943000000     4.212000000     0.279000000
H     3.727000000     5.463000000    -0.546000000
O    -5.264000000     0.481000000     1.071000000
H    -4.747000000     0.746000000     1.832000000
H    -5.385000000    -0.462000000     1.181000000
O     4.542000000    -3.127000000     1.262000000
H     5.235000000    -3.387000000     0.654000000
H     4.503000000    -2.173000000     1.186000000
O     4.886000000    -0.740000000    -4.999000000
H     4.304000000    -1.361000000    -4.560000000
H     4.836000000    -0.978000000    -5.925000000
O    -2.878000000    -5.228000000     2.241000000
H    -3.263000000    -5.160000000     1.367000000
H    -3.600000000    -5.025000000     2.836000000
O     2.096000000    -3.758000000     0.285000000
H     2.834000000    -3.683000000     0.890000000
H     1.328000000    -3.552000000     0.817000000
O     3.423000000    -2.516000000    -3.404000000
H     2.683000000    -3.122000000    -3.369000000
H     3.550000000    -2.239000000    -2.497000000
O    -2.394000000     1.705000000    -5.582000000
H    -2.160000000     0.777000000    -5.552000000
H    -3.026000000     1.769000000    -6.298000000
O     6.927000000     1.104000000     2.219000000
H     7.511000000     1.339000000     1.498000000
H     6.541000000     1.935000000     2.496000000
O     3.532000000    -1.806000000     4.609000000
H     2.701000000    -1.439000000     4.307000000
H     4.180000000    -1.132000000     4.404000000
O     0.543000000     6.408000000    -2.561000000
H     0.220000000     5.510000000    -2.634000000
H     0.611000000     6.562000000    -1.619000000
O    -1.631000000     2.301000000     3.177000000
H    -1.902000000     3.007000000     3.764000000
H    -1.364000000     2.747000000     2.373000000
O    -5.840000000     0.820000000    -4.789000000
H    -5.568000000     0.642000000    -3.889000000
H    -5.183000000     0.380000000    -5.329000000
O    -0.691000000     3.745000000    -6.925000000
H    -0.032000000     3.525000000    -6.267000000
H    -1.466000000     3.247000000    -6.665000000
O     4.136000000     0.908000000     7.423000000
H     3.990000000     1.240000000     6.537000000
H     5.019000000     0.540000000     7.399000000
O    -0.635000000     3.527000000     0.393000000
H     0.095000000     2.915000000     0.480000000
H    -0.293000000     4.356000000     0.729000000
O    -4.327000000    -1.038000000    -3.442000000
H    -4.206000000    -1.688000000    -4.134000000
H    -3.486000000    -1.014000000    -2.987000000
O    -2.578000000     3.519000000    -1.532000000
H    -3.459000000     3.159000000    -1.428000000
H    -2.042000000     3.025000000    -0.912000000
