158
-3023.01802
C    -0.256000000    -0.955000000     1.066000000
H    -0.608000000    -1.663000000     1.812000000
C    -0.881000000    -0.889000000    -0.146000000
H    -1.766000000    -1.492000000    -0.331000000
C    -0.525000000     0.058000000    -1.108000000
H    -1.033000000     0.069000000    -2.078000000
C     0.521000000     0.889000000    -0.876000000
H     0.751000000     1.659000000    -1.607000000
C     1.215000000     0.823000000     0.333000000
H     2.035000000     1.526000000     0.454000000
C     0.715000000    -0.053000000     1.372000000
C     1.449000000    -0.056000000     2.692000000
O     1.061000000    -0.839000000     3.576000000
O     2.370000000     0.669000000     2.937000000
O    -4.085000000    -5.375000000    -1.295000000
H    -4.800000000    -5.648000000    -1.870000000
H    -3.431000000    -5.002000000    -1.887000000
O    -5.481000000    -2.199000000    -0.109000000
H    -4.749000000    -1.864000000     0.410000000
H    -5.911000000    -2.833000000     0.464000000
O    -4.575000000    -1.712000000    -2.870000000
H    -4.797000000    -2.068000000    -2.009000000
H    -3.623000000    -1.801000000    -2.927000000
O    -7.629000000     0.026000000    -3.592000000
H    -6.794000000     0.168000000    -3.146000000
H    -7.706000000     0.765000000    -4.196000000
O     1.297000000    -0.100000000    -6.050000000
H     2.208000000     0.186000000    -6.108000000
H     1.333000000    -1.046000000    -6.190000000
O     6.494000000    -0.910000000     1.805000000
H     6.146000000    -1.579000000     2.394000000
H     6.722000000    -0.179000000     2.380000000
O     5.485000000     2.971000000     5.491000000
H     5.687000000     3.879000000     5.714000000
H     5.052000000     2.623000000     6.271000000
O     4.364000000     0.175000000     4.935000000
H     3.833000000     0.484000000     4.201000000
H     3.848000000    -0.531000000     5.324000000
O    -2.811000000    -4.371000000     1.046000000
H    -3.086000000    -3.487000000     1.288000000
H    -3.384000000    -4.611000000     0.318000000
O     3.183000000    -1.893000000     6.381000000
H     3.777000000    -2.581000000     6.082000000
H     2.308000000    -2.264000000     6.267000000
O     0.082000000    -3.709000000    -3.801000000
H    -0.276000000    -4.520000000    -3.442000000
H     0.939000000    -3.958000000    -4.147000000
O     3.667000000     5.141000000    -1.896000000
H     4.083000000     4.633000000    -1.199000000
H     4.185000000     5.944000000    -1.949000000
O     1.782000000    -2.068000000    -1.010000000
H     1.068000000    -1.432000000    -0.959000000
H     1.606000000    -2.683000000    -0.298000000
O     0.939000000    -3.851000000     6.115000000
H     1.038000000    -3.772000000     5.166000000
H     1.372000000    -4.677000000     6.333000000
O    -2.676000000     2.056000000    -1.595000000
H    -1.913000000     2.188000000    -1.033000000
H    -3.237000000     1.458000000    -1.102000000
O     3.089000000     3.918000000    -4.293000000
H     3.062000000     4.268000000    -3.402000000
H     2.233000000     3.507000000    -4.415000000
O     0.342000000     3.973000000    -3.609000000
H     0.017000000     4.190000000    -2.735000000
H    -0.314000000     3.374000000    -3.966000000
O     4.216000000     2.489000000     2.647000000
H     3.585000000     1.826000000     2.930000000
H     4.777000000     2.626000000     3.410000000
O     3.731000000     0.971000000    -2.792000000
H     3.465000000     1.004000000    -1.873000000
H     3.904000000     0.045000000    -2.959000000
O     7.063000000     0.833000000    -1.521000000
H     6.353000000     0.611000000    -0.919000000
H     7.797000000     1.064000000    -0.952000000
O    -2.098000000    -0.539000000     7.157000000
H    -2.542000000     0.140000000     7.666000000
H    -2.009000000    -0.162000000     6.282000000
O     0.029000000     3.458000000     6.292000000
H    -0.394000000     3.244000000     7.123000000
H     0.336000000     2.617000000     5.955000000
O    -3.044000000    -4.615000000    -4.109000000
H    -2.297000000    -4.988000000    -3.641000000
H    -2.826000000    -3.689000000    -4.209000000
O    -1.670000000     1.924000000    -4.244000000
H    -2.153000000     2.113000000    -3.439000000
H    -1.381000000     1.018000000    -4.144000000
O    -1.671000000    -1.601000000     4.175000000
H    -1.357000000    -2.413000000     4.572000000
H    -0.875000000    -1.102000000     3.989000000
O     4.984000000     0.576000000     0.283000000
H     4.403000000     1.111000000     0.824000000
H     5.558000000     0.138000000     0.910000000
O     1.399000000     1.334000000     5.450000000
H     1.461000000     0.380000000     5.390000000
H     1.439000000     1.634000000     4.542000000
O    -3.648000000    -5.343000000     3.909000000
H    -3.990000000    -5.656000000     3.072000000
H    -3.546000000    -4.399000000     3.788000000
O     3.007000000    -3.415000000    -2.950000000
H     3.551000000    -2.696000000    -3.270000000
H     2.438000000    -3.012000000    -2.295000000
O    -4.796000000     3.515000000    -6.008000000
H    -4.624000000     3.869000000    -5.135000000
H    -4.415000000     2.637000000    -5.990000000
O     4.889000000     3.849000000     0.226000000
H     5.757000000     4.071000000     0.564000000
H     4.476000000     3.355000000     0.933000000
O    -2.225000000     5.419000000    -1.120000000
H    -2.113000000     6.235000000    -0.633000000
H    -1.754000000     4.765000000    -0.603000000
O    -3.836000000    -1.795000000     2.019000000
H    -4.548000000    -1.490000000     2.581000000
H    -3.070000000    -1.814000000     2.593000000
O    -0.837000000    -6.382000000     1.641000000
H     0.047000000    -6.188000000     1.954000000
H    -1.268000000    -5.528000000     1.597000000
O    -4.126000000     0.554000000     0.430000000
H    -4.109000000     0.832000000     1.346000000
H    -3.748000000    -0.325000000     0.439000000
O     2.557000000    -3.933000000     0.928000000
H     2.364000000    -4.828000000     0.648000000
H     3.448000000    -3.772000000     0.619000000
O    -1.507000000    -0.401000000    -5.891000000
H    -0.630000000    -0.162000000    -6.191000000
H    -2.055000000    -0.327000000    -6.672000000
O     7.012000000     1.065000000     3.683000000
H     7.739000000     1.234000000     4.282000000
H     6.228000000     1.248000000     4.200000000
O     1.742000000    -3.416000000     3.589000000
H     1.472000000    -2.498000000     3.557000000
H     2.229000000    -3.551000000     2.776000000
O    -0.601000000     3.478000000    -6.770000000
H    -0.806000000     2.601000000    -6.446000000
H     0.056000000     3.333000000    -7.451000000
O     1.135000000     4.992000000    -0.776000000
H     1.989000000     4.909000000    -1.200000000
H     1.208000000     5.784000000    -0.243000000
O     3.190000000     5.183000000     3.138000000
H     4.005000000     4.726000000     3.348000000
H     2.766000000     5.318000000     3.986000000
O    -1.346000000     4.147000000     3.765000000
H    -0.625000000     3.865000000     3.202000000
H    -1.053000000     3.936000000     4.652000000
O    -3.941000000     4.312000000    -2.891000000
H    -3.192000000     4.668000000    -2.413000000
H    -4.032000000     3.418000000    -2.563000000
O    -4.689000000     0.752000000    -5.399000000
H    -4.848000000     0.048000000    -6.028000000
H    -4.064000000     0.380000000    -4.776000000
O     1.076000000     3.148000000     2.790000000
H     1.526000000     2.303000000     2.772000000
H     1.780000000     3.792000000     2.875000000
O    -2.096000000    -2.098000000    -3.521000000
H    -1.941000000    -1.590000000    -4.317000000
H    -1.327000000    -2.663000000    -3.442000000
O    -0.515000000     3.557000000     0.403000000
H     0.009000000     4.190000000    -0.087000000
H     0.086000000     3.204000000     1.059000000
