158
-3037.02827
C     0.316000000    -1.095000000     0.926000000
H     0.295000000    -1.895000000     1.661000000
C    -0.347000000    -1.223000000    -0.280000000
H    -0.676000000    -2.247000000    -0.439000000
C    -0.550000000    -0.139000000    -1.115000000
H    -0.951000000    -0.306000000    -2.098000000
C    -0.093000000     1.139000000    -0.690000000
H    -0.198000000     1.998000000    -1.347000000
C     0.635000000     1.286000000     0.510000000
H     0.901000000     2.292000000     0.826000000
C     0.802000000     0.145000000     1.352000000
C     1.343000000     0.283000000     2.740000000
O     1.500000000    -0.663000000     3.482000000
O     1.511000000     1.396000000     3.165000000
O     2.568000000    -5.327000000     5.425000000
H     2.797000000    -4.401000000     5.357000000
H     1.668000000    -5.328000000     5.753000000
O    -4.388000000    -2.863000000     0.240000000
H    -4.834000000    -2.812000000     1.086000000
H    -3.920000000    -2.032000000     0.165000000
O     2.836000000    -2.506000000    -2.317000000
H     3.676000000    -2.813000000    -2.659000000
H     2.386000000    -3.303000000    -2.038000000
O     2.844000000     1.653000000     7.717000000
H     2.926000000     0.779000000     7.336000000
H     2.021000000     1.626000000     8.204000000
O    -1.762000000    -0.312000000    -5.016000000
H    -1.827000000    -0.927000000    -4.285000000
H    -1.126000000    -0.712000000    -5.610000000
O     5.659000000     3.913000000     2.114000000
H     5.386000000     4.629000000     2.688000000
H     5.065000000     3.194000000     2.328000000
O     3.228000000    -0.164000000     5.567000000
H     2.679000000    -0.422000000     4.827000000
H     3.613000000    -0.983000000     5.877000000
O    -1.874000000    -4.789000000     1.395000000
H    -2.094000000    -4.052000000     1.964000000
H    -2.099000000    -4.487000000     0.515000000
O     4.034000000    -2.629000000     6.127000000
H     4.466000000    -3.196000000     6.765000000
H     4.624000000    -2.623000000     5.373000000
O     0.095000000    -4.069000000    -2.673000000
H    -0.650000000    -4.662000000    -2.571000000
H     0.749000000    -4.397000000    -2.056000000
O     3.046000000     5.777000000    -2.050000000
H     3.778000000     5.379000000    -1.578000000
H     2.304000000     5.200000000    -1.870000000
O    -3.509000000     4.585000000     0.561000000
H    -3.619000000     3.634000000     0.567000000
H    -3.278000000     4.793000000    -0.345000000
O     1.769000000    -4.408000000    -0.466000000
H     1.482000000    -4.446000000     0.447000000
H     2.565000000    -4.939000000    -0.489000000
O    -1.431000000    -2.132000000     5.731000000
H    -0.692000000    -2.615000000     5.362000000
H    -1.115000000    -1.232000000     5.807000000
O    -3.844000000     2.121000000    -0.716000000
H    -4.702000000     2.348000000    -0.358000000
H    -3.586000000     1.332000000    -0.239000000
O     2.132000000     3.533000000    -4.809000000
H     2.154000000     3.533000000    -5.766000000
H     2.414000000     2.653000000    -4.563000000
O    -2.547000000     5.643000000    -1.805000000
H    -2.156000000     6.516000000    -1.809000000
H    -2.669000000     5.431000000    -2.730000000
O     4.129000000     1.914000000     3.238000000
H     3.213000000     1.668000000     3.112000000
H     4.312000000     1.694000000     4.151000000
O     3.478000000    -4.227000000     2.013000000
H     2.734000000    -4.816000000     2.140000000
H     4.035000000    -4.377000000     2.778000000
O     3.890000000    -2.101000000     0.483000000
H     3.172000000    -2.263000000    -0.129000000
H     3.764000000    -2.750000000     1.176000000
O     0.160000000     4.554000000    -1.655000000
H    -0.530000000     5.214000000    -1.715000000
H     0.412000000     4.387000000    -2.563000000
O     5.020000000     0.694000000    -1.752000000
H     4.687000000     0.706000000    -0.855000000
H     4.251000000     0.504000000    -2.290000000
O     3.949000000     1.363000000    -5.281000000
H     3.568000000     1.174000000    -4.424000000
H     4.216000000     0.508000000    -5.618000000
O    -4.356000000    -4.515000000    -4.430000000
H    -5.118000000    -4.039000000    -4.761000000
H    -4.576000000    -4.715000000    -3.520000000
O    -3.508000000     2.808000000    -3.278000000
H    -3.543000000     2.834000000    -2.322000000
H    -2.854000000     2.137000000    -3.476000000
O    -5.640000000     0.699000000    -3.918000000
H    -5.855000000     0.050000000    -3.249000000
H    -4.687000000     0.652000000    -4.000000000
O    -2.292000000    -2.537000000     3.056000000
H    -1.771000000    -2.499000000     3.858000000
H    -2.786000000    -1.717000000     3.052000000
O     4.679000000     0.600000000     0.918000000
H     4.551000000     0.881000000     1.824000000
H     4.250000000    -0.254000000     0.869000000
O    -0.659000000     0.872000000     6.386000000
H    -0.597000000     1.638000000     6.956000000
H     0.018000000     1.011000000     5.723000000
O    -1.701000000    -6.050000000    -2.214000000
H    -2.502000000    -5.538000000    -2.104000000
H    -1.963000000    -6.950000000    -2.017000000
O    -2.881000000     0.260000000     3.325000000
H    -3.199000000     0.574000000     4.171000000
H    -2.482000000     1.029000000     2.918000000
O     3.282000000     3.669000000     5.670000000
H     2.801000000     3.153000000     6.318000000
H     2.616000000     3.949000000     5.043000000
O     2.196000000     0.230000000    -3.006000000
H     1.263000000     0.310000000    -2.807000000
H     2.455000000    -0.601000000    -2.608000000
O     1.663000000    -3.186000000    -5.497000000
H     0.870000000    -2.842000000    -5.907000000
H     1.495000000    -3.119000000    -4.557000000
O     1.307000000    -2.742000000     7.683000000
H     0.836000000    -3.514000000     7.369000000
H     2.022000000    -2.626000000     7.057000000
O    -3.161000000    -0.325000000     0.712000000
H    -2.887000000    -0.180000000     1.618000000
H    -2.342000000    -0.356000000     0.217000000
O     0.890000000    -5.239000000     2.199000000
H    -0.028000000    -5.280000000     1.934000000
H     0.960000000    -5.864000000     2.921000000
O    -1.889000000     2.286000000    -6.012000000
H    -1.822000000     1.439000000    -5.572000000
H    -2.720000000     2.245000000    -6.486000000
O     5.817000000     1.214000000     6.433000000
H     5.912000000     2.166000000     6.471000000
H     4.890000000     1.074000000     6.239000000
O     0.832000000    -3.097000000     4.347000000
H     1.133000000    -2.207000000     4.163000000
H     1.074000000    -3.597000000     3.567000000
O    -0.459000000     4.913000000     1.194000000
H    -1.129000000     5.182000000     0.566000000
H     0.350000000     5.304000000     0.864000000
O     1.825000000     6.690000000     0.986000000
H     2.515000000     6.373000000     0.404000000
H     2.292000000     7.020000000     1.753000000
O    -6.172000000    -1.501000000    -2.005000000
H    -5.928000000    -1.858000000    -1.151000000
H    -7.018000000    -1.905000000    -2.200000000
O    -0.633000000    -2.143000000    -6.572000000
H    -0.624000000    -1.705000000    -7.423000000
H    -1.070000000    -2.978000000    -6.737000000
O     0.600000000     3.963000000     4.051000000
H     1.127000000     3.251000000     3.690000000
H    -0.114000000     4.075000000     3.422000000
O    -1.905000000    -2.328000000    -3.126000000
H    -1.026000000    -2.702000000    -3.057000000
H    -2.460000000    -3.066000000    -3.377000000
O    -1.930000000     2.796000000     2.261000000
H    -1.288000000     3.212000000     1.686000000
H    -2.368000000     3.526000000     2.699000000
O    -4.440000000    -4.940000000    -1.807000000
H    -4.604000000    -4.265000000    -1.149000000
H    -4.534000000    -5.766000000    -1.331000000
