158
-2974.90249
C     0.600000000    -1.403000000     0.153000000
H     1.134000000    -2.349000000     0.114000000
C     0.122000000    -0.861000000    -1.010000000
H     0.277000000    -1.278000000    -2.001000000
C    -0.479000000     0.392000000    -1.032000000
H    -0.767000000     0.777000000    -2.048000000
C    -0.753000000     1.094000000     0.166000000
H    -1.120000000     2.114000000     0.084000000
C    -0.158000000     0.634000000     1.362000000
H    -0.135000000     1.225000000     2.274000000
C     0.460000000    -0.618000000     1.376000000
C     1.266000000    -1.003000000     2.570000000
O     2.042000000    -1.894000000     2.463000000
O     1.078000000    -0.418000000     3.626000000
O    -4.522000000     4.489000000    -4.695000000
H    -3.850000000     4.282000000    -5.344000000
H    -4.942000000     3.650000000    -4.508000000
O     6.878000000    -3.362000000     2.631000000
H     6.762000000    -2.415000000     2.703000000
H     7.223000000    -3.627000000     3.484000000
O     0.814000000    -3.802000000    -5.146000000
H     0.121000000    -4.436000000    -5.331000000
H     0.677000000    -3.558000000    -4.231000000
O     3.123000000    -7.071000000     3.763000000
H     3.540000000    -6.303000000     3.373000000
H     3.773000000    -7.769000000     3.671000000
O    -2.739000000    -1.301000000    -6.885000000
H    -3.202000000    -1.938000000    -7.430000000
H    -1.817000000    -1.545000000    -6.962000000
O     3.986000000    -2.012000000     0.545000000
H     3.620000000    -1.541000000    -0.204000000
H     3.261000000    -2.071000000     1.168000000
O    -5.527000000     1.823000000    -4.289000000
H    -5.829000000     1.203000000    -3.624000000
H    -6.210000000     1.806000000    -4.959000000
O    -2.568000000     4.111000000     1.016000000
H    -3.267000000     4.389000000     1.609000000
H    -3.007000000     3.553000000     0.374000000
O    -2.968000000    -0.655000000    -3.980000000
H    -2.943000000    -0.899000000    -4.905000000
H    -3.835000000    -0.932000000    -3.683000000
O     5.046000000     2.251000000     4.069000000
H     5.891000000     1.805000000     4.011000000
H     4.401000000     1.543000000     4.066000000
O    -2.531000000     1.442000000     3.499000000
H    -2.689000000     1.734000000     2.601000000
H    -2.474000000     0.488000000     3.433000000
O     0.343000000    -4.498000000    -1.790000000
H    -0.333000000    -5.083000000    -2.133000000
H    -0.129000000    -3.699000000    -1.554000000
O    -2.609000000    -3.417000000    -2.532000000
H    -2.451000000    -2.614000000    -2.036000000
H    -3.525000000    -3.631000000    -2.357000000
O    -0.611000000     4.155000000     3.020000000
H    -1.137000000     4.011000000     2.233000000
H     0.288000000     3.983000000     2.741000000
O    -0.771000000     5.677000000    -0.115000000
H    -1.485000000     5.295000000     0.396000000
H    -0.618000000     6.531000000     0.289000000
O    -4.329000000    -3.472000000    -4.975000000
H    -3.473000000    -3.535000000    -4.551000000
H    -4.798000000    -2.807000000    -4.472000000
O    -0.029000000     3.038000000     7.592000000
H     0.100000000     2.460000000     6.841000000
H    -0.809000000     2.694000000     8.028000000
O     1.795000000     2.809000000     1.848000000
H     2.706000000     2.727000000     2.130000000
H     1.408000000     1.954000000     2.037000000
O    -0.388000000     0.210000000    -4.430000000
H    -1.266000000    -0.097000000    -4.204000000
H    -0.453000000     1.165000000    -4.397000000
O    -3.031000000     2.154000000    -2.821000000
H    -3.170000000     1.990000000    -1.889000000
H    -3.867000000     1.935000000    -3.231000000
O    -3.700000000     1.533000000    -6.655000000
H    -3.188000000     0.724000000    -6.649000000
H    -3.971000000     1.651000000    -5.744000000
O    -2.533000000     3.262000000     5.567000000
H    -2.649000000     2.658000000     4.833000000
H    -2.217000000     4.070000000     5.164000000
O     3.049000000     0.205000000    -1.287000000
H     2.354000000     0.557000000    -0.731000000
H     2.815000000     0.487000000    -2.171000000
O     3.208000000    -3.775000000    -2.258000000
H     3.918000000    -3.142000000    -2.144000000
H     2.427000000    -3.317000000    -1.948000000
O     0.159000000     1.476000000     5.339000000
H    -0.689000000     1.600000000     4.914000000
H     0.665000000     0.952000000     4.718000000
O    -0.912000000     2.760000000    -4.046000000
H    -1.181000000     3.157000000    -4.875000000
H    -1.729000000     2.638000000    -3.563000000
O     1.654000000    -3.953000000     4.165000000
H     1.059000000    -3.473000000     4.742000000
H     1.915000000    -3.312000000     3.504000000
O    -0.277000000     6.022000000    -3.113000000
H    -0.323000000     5.903000000    -2.164000000
H    -0.002000000     5.168000000    -3.448000000
O    -2.181000000    -1.976000000     3.611000000
H    -2.533000000    -1.860000000     2.729000000
H    -2.872000000    -1.653000000     4.189000000
O     4.764000000    -2.816000000     5.142000000
H     3.916000000    -3.261000000     5.150000000
H     5.263000000    -3.264000000     4.459000000
O    -3.995000000     5.214000000    -1.873000000
H    -4.793000000     4.729000000    -2.086000000
H    -3.616000000     5.435000000    -2.724000000
O    -0.287000000    -3.261000000     8.101000000
H    -0.135000000    -2.932000000     7.215000000
H     0.241000000    -4.057000000     8.155000000
O     2.055000000     5.006000000    -0.197000000
H     2.159000000     4.541000000     0.634000000
H     1.108000000     5.042000000    -0.333000000
O    -3.895000000     1.735000000     0.099000000
H    -3.848000000     0.781000000     0.044000000
H    -4.752000000     1.911000000     0.485000000
O     3.586000000    -0.183000000     4.105000000
H     3.967000000    -0.956000000     4.522000000
H     2.659000000    -0.398000000     4.004000000
O     0.078000000    -5.590000000     2.043000000
H    -0.454000000    -4.972000000     1.543000000
H     0.356000000    -5.098000000     2.815000000
O     1.964000000    -6.050000000    -0.050000000
H     1.498000000    -5.405000000    -0.583000000
H     1.818000000    -5.765000000     0.852000000
O    -4.360000000    -1.338000000    -0.943000000
H    -4.775000000    -2.201000000    -0.963000000
H    -4.696000000    -0.893000000    -1.720000000
O     5.485000000    -0.723000000     2.309000000
H     4.632000000    -0.528000000     2.697000000
H     5.278000000    -1.151000000     1.478000000
O    -5.848000000    -1.012000000    -3.330000000
H    -6.241000000    -1.118000000    -4.196000000
H    -6.571000000    -0.722000000    -2.773000000
O     1.603000000     3.468000000    -5.820000000
H     1.222000000     3.001000000    -5.076000000
H     1.514000000     2.861000000    -6.555000000
O    -3.698000000     6.683000000     0.454000000
H    -2.824000000     6.962000000     0.729000000
H    -3.541000000     5.922000000    -0.105000000
O     2.324000000     0.939000000    -3.771000000
H     2.886000000     0.656000000    -4.492000000
H     1.553000000     0.374000000    -3.832000000
O     0.696000000     1.324000000    -7.303000000
H    -0.011000000     1.233000000    -6.664000000
H     0.799000000     0.448000000    -7.673000000
O    -0.633000000     6.044000000     4.936000000
H    -0.409000000     5.390000000     4.274000000
H    -1.333000000     6.560000000     4.536000000
O     4.680000000    -6.020000000    -0.406000000
H     4.888000000    -5.800000000     0.502000000
H     3.727000000    -5.938000000    -0.459000000
O    -0.116000000    -2.215000000     5.475000000
H     0.248000000    -1.462000000     5.011000000
H    -0.886000000    -2.463000000     4.963000000
O    -2.788000000    -0.898000000     1.417000000
H    -2.109000000    -0.327000000     1.059000000
H    -3.291000000    -1.180000000     0.653000000
