158
-3003.83205
C     0.243000000    -1.414000000     0.386000000
H     0.310000000    -2.472000000     0.627000000
C    -0.392000000    -0.985000000    -0.766000000
H    -0.823000000    -1.623000000    -1.534000000
C    -0.509000000     0.333000000    -1.071000000
H    -1.058000000     0.627000000    -1.952000000
C    -0.056000000     1.293000000    -0.139000000
H    -0.156000000     2.359000000    -0.328000000
C     0.657000000     0.919000000     1.006000000
H     1.155000000     1.653000000     1.634000000
C     0.786000000    -0.444000000     1.325000000
C     1.469000000    -0.852000000     2.580000000
O     1.515000000    -2.021000000     2.876000000
O     1.792000000     0.002000000     3.393000000
O    -4.771000000    -2.492000000    -2.797000000
H    -4.987000000    -2.721000000    -3.700000000
H    -4.114000000    -3.138000000    -2.536000000
O     1.700000000    -5.421000000     1.338000000
H     2.197000000    -5.455000000     0.521000000
H     1.047000000    -6.115000000     1.251000000
O    -0.105000000    -0.976000000    -5.421000000
H    -0.270000000    -1.834000000    -5.812000000
H     0.752000000    -1.063000000    -5.005000000
O    -2.130000000    -2.977000000    -4.746000000
H    -1.890000000    -2.135000000    -4.359000000
H    -2.159000000    -3.581000000    -4.004000000
O     3.566000000    -5.134000000    -0.830000000
H     3.360000000    -4.300000000    -1.253000000
H     4.313000000    -4.937000000    -0.265000000
O    -0.355000000    -7.176000000     1.389000000
H    -0.398000000    -6.804000000     0.508000000
H    -1.229000000    -7.537000000     1.539000000
O     0.795000000     1.622000000    -6.763000000
H     0.713000000     1.005000000    -7.490000000
H     1.608000000     1.370000000    -6.326000000
O    -2.189000000     4.578000000    -1.064000000
H    -1.992000000     4.261000000    -1.945000000
H    -2.400000000     5.504000000    -1.184000000
O     0.548000000     3.270000000     6.239000000
H     1.341000000     3.617000000     5.829000000
H     0.252000000     2.582000000     5.643000000
O    -1.057000000    -6.197000000    -1.022000000
H    -0.242000000    -6.137000000    -1.520000000
H    -1.404000000    -7.064000000    -1.232000000
O    -2.775000000    -3.961000000     1.147000000
H    -1.952000000    -3.865000000     1.625000000
H    -2.608000000    -4.666000000     0.522000000
O     5.226000000     0.988000000     0.936000000
H     5.926000000     0.351000000     1.080000000
H     4.835000000     1.113000000     1.800000000
O    -2.597000000     5.175000000    -5.441000000
H    -1.948000000     4.526000000    -5.714000000
H    -2.942000000     4.836000000    -4.615000000
O    -3.157000000     2.915000000     1.034000000
H    -2.418000000     2.308000000     1.065000000
H    -3.027000000     3.411000000     0.226000000
O    -5.719000000     1.811000000     0.941000000
H    -6.224000000     1.895000000     1.750000000
H    -5.011000000     2.448000000     1.033000000
O     3.179000000    -4.308000000     3.263000000
H     2.584000000    -3.559000000     3.270000000
H     2.859000000    -4.862000000     2.551000000
O    -2.712000000    -4.503000000    -2.665000000
H    -3.161000000    -5.187000000    -3.162000000
H    -2.350000000    -4.958000000    -1.904000000
O    -2.117000000    -0.138000000     2.962000000
H    -2.572000000    -0.287000000     2.133000000
H    -1.831000000    -1.009000000     3.238000000
O     1.996000000     3.638000000    -1.913000000
H     1.282000000     4.056000000    -2.393000000
H     1.902000000     2.705000000    -2.108000000
O     0.171000000     4.599000000     0.897000000
H    -0.560000000     4.861000000     0.337000000
H     0.948000000     4.736000000     0.356000000
O    -0.911000000     4.427000000     3.387000000
H    -0.250000000     3.823000000     3.725000000
H    -0.742000000     4.465000000     2.445000000
O     4.808000000     3.481000000    -0.568000000
H     4.910000000     2.606000000    -0.192000000
H     4.048000000     3.406000000    -1.145000000
O    -4.712000000     4.173000000    -3.569000000
H    -5.018000000     4.942000000    -3.088000000
H    -5.013000000     3.429000000    -3.046000000
O    -1.303000000     3.531000000    -7.174000000
H    -1.924000000     3.016000000    -7.690000000
H    -0.563000000     2.941000000    -7.032000000
O     4.152000000    -0.688000000    -1.175000000
H     4.338000000    -0.324000000    -0.310000000
H     4.619000000    -1.524000000    -1.188000000
O     5.208000000     1.779000000     6.034000000
H     5.942000000     2.392000000     5.996000000
H     4.478000000     2.299000000     6.369000000
O     4.995000000    -1.921000000     3.612000000
H     4.543000000    -2.762000000     3.685000000
H     4.302000000    -1.295000000     3.402000000
O    -4.414000000    -0.475000000     0.017000000
H    -4.907000000     0.334000000     0.154000000
H    -3.950000000    -0.337000000    -0.808000000
O    -0.877000000     3.447000000    -3.595000000
H    -0.206000000     3.957000000    -4.049000000
H    -0.947000000     2.638000000    -4.102000000
O     2.177000000     6.132000000     2.940000000
H     2.863000000     5.541000000     2.630000000
H     2.297000000     6.930000000     2.425000000
O    -0.244000000     1.183000000     4.525000000
H     0.550000000     0.809000000     4.142000000
H    -0.938000000     0.954000000     3.906000000
O    -0.171000000    -0.359000000     6.913000000
H     0.578000000    -0.877000000     6.619000000
H    -0.364000000     0.223000000     6.177000000
O     3.914000000     4.169000000     2.001000000
H     4.537000000     3.750000000     2.595000000
H     4.332000000     4.120000000     1.142000000
O    -5.232000000     1.880000000    -1.919000000
H    -4.806000000     1.078000000    -2.222000000
H    -4.544000000     2.355000000    -1.454000000
O     4.414000000     0.935000000     3.358000000
H     4.438000000     0.968000000     4.314000000
H     3.484000000     1.000000000     3.140000000
O     2.105000000     0.927000000    -2.516000000
H     2.782000000     0.418000000    -2.069000000
H     1.284000000     0.502000000    -2.267000000
O    -1.476000000    -5.896000000     4.879000000
H    -1.309000000    -5.399000000     4.079000000
H    -2.125000000    -6.552000000     4.623000000
O    -0.382000000    -3.962000000     2.831000000
H     0.133000000    -3.157000000     2.792000000
H     0.257000000    -4.662000000     2.694000000
O     2.955000000    -3.100000000    -2.760000000
H     3.245000000    -2.200000000    -2.910000000
H     2.728000000    -3.426000000    -3.631000000
O    -3.849000000    -0.126000000    -2.816000000
H    -4.145000000    -1.037000000    -2.822000000
H    -3.478000000     0.011000000    -3.688000000
O    -3.911000000    -0.161000000    -5.686000000
H    -4.811000000    -0.483000000    -5.658000000
H    -3.494000000    -0.673000000    -6.379000000
O     4.559000000    -5.405000000     5.407000000
H     3.825000000    -5.391000000     6.021000000
H     4.169000000    -5.184000000     4.562000000
O    -0.035000000    -4.158000000     6.099000000
H    -0.397000000    -4.138000000     6.985000000
H    -0.368000000    -4.972000000     5.722000000
O     1.209000000     4.370000000    -4.858000000
H     0.987000000     4.114000000    -5.753000000
H     2.077000000     4.768000000    -4.931000000
O     3.763000000    -0.317000000     7.081000000
H     3.223000000    -0.796000000     6.452000000
H     4.028000000     0.476000000     6.614000000
O     1.805000000    -2.078000000     5.568000000
H     1.822000000    -1.884000000     4.631000000
H     1.354000000    -2.920000000     5.631000000
O    -1.977000000    -2.393000000     4.708000000
H    -1.533000000    -3.195000000     4.434000000
H    -2.386000000    -2.619000000     5.543000000
O    -1.482000000     1.272000000    -5.005000000
H    -2.247000000     0.823000000    -5.367000000
H    -0.745000000     0.703000000    -5.226000000
