158
-3029.25385
C     1.195000000    -0.579000000    -0.574000000
H     2.154000000    -0.969000000    -0.904000000
C     0.993000000     0.764000000    -0.234000000
H     1.842000000     1.397000000    -0.479000000
C    -0.140000000     1.243000000     0.370000000
H    -0.178000000     2.299000000     0.543000000
C    -1.175000000     0.280000000     0.618000000
H    -2.079000000     0.598000000     1.131000000
C    -0.988000000    -1.062000000     0.169000000
H    -1.652000000    -1.904000000     0.345000000
C     0.174000000    -1.475000000    -0.427000000
C     0.407000000    -2.907000000    -0.866000000
O    -0.554000000    -3.686000000    -0.695000000
O     1.398000000    -3.264000000    -1.446000000
O    -5.923000000    -3.670000000     0.155000000
H    -6.663000000    -3.226000000     0.569000000
H    -5.774000000    -3.182000000    -0.654000000
O     1.028000000    -2.562000000    -6.542000000
H     1.129000000    -2.813000000    -5.624000000
H     1.424000000    -3.283000000    -7.032000000
O    -2.033000000     0.519000000    -2.277000000
H    -1.457000000    -0.100000000    -2.725000000
H    -1.598000000     0.688000000    -1.441000000
O    -1.298000000    -4.359000000    -3.199000000
H    -1.409000000    -4.025000000    -2.309000000
H    -0.612000000    -3.810000000    -3.577000000
O    -4.820000000    -0.754000000    -0.923000000
H    -5.586000000    -0.440000000    -1.405000000
H    -4.095000000    -0.224000000    -1.255000000
O    -0.593000000    -1.304000000    -3.602000000
H     0.003000000    -1.876000000    -3.119000000
H    -0.059000000    -0.546000000    -3.838000000
O     2.875000000     4.481000000     1.025000000
H     2.961000000     4.097000000     0.152000000
H     2.738000000     3.731000000     1.604000000
O     2.034000000    -4.858000000     2.080000000
H     1.456000000    -5.490000000     1.655000000
H     1.634000000    -4.705000000     2.937000000
O     2.441000000     6.514000000     2.752000000
H     2.724000000     5.737000000     2.269000000
H     3.158000000     7.138000000     2.644000000
O    -1.853000000    -7.502000000    -2.160000000
H    -1.289000000    -7.428000000    -2.930000000
H    -1.613000000    -8.341000000    -1.767000000
O     2.931000000    -7.679000000     0.435000000
H     1.983000000    -7.714000000     0.306000000
H     3.252000000    -7.148000000    -0.293000000
O    -1.913000000     4.989000000     0.439000000
H    -2.506000000     4.352000000     0.039000000
H    -1.141000000     4.987000000    -0.128000000
O     3.547000000    -5.854000000    -1.878000000
H     3.584000000    -4.938000000    -2.155000000
H     4.439000000    -6.054000000    -1.594000000
O    -0.934000000     1.647000000     4.987000000
H    -1.023000000     1.447000000     5.919000000
H     0.001000000     1.815000000     4.866000000
O    -4.630000000    -3.723000000    -3.764000000
H    -4.291000000    -3.000000000    -4.292000000
H    -3.872000000    -4.035000000    -3.271000000
O    -0.437000000    -8.125000000     1.281000000
H    -0.373000000    -7.347000000     0.727000000
H    -1.068000000    -8.688000000     0.832000000
O    -2.703000000    -2.412000000     3.814000000
H    -3.059000000    -2.557000000     2.938000000
H    -3.451000000    -2.529000000     4.399000000
O     0.835000000     6.488000000     0.334000000
H     1.277000000     5.683000000     0.606000000
H     1.077000000     7.131000000     1.001000000
O     1.310000000    -3.745000000    -3.879000000
H     2.105000000    -4.215000000    -4.132000000
H     1.424000000    -3.566000000    -2.946000000
O    -4.752000000     2.202000000     4.491000000
H    -4.720000000     2.923000000     5.120000000
H    -3.982000000     2.333000000     3.938000000
O     0.215000000    -7.136000000    -4.416000000
H    -0.075000000    -6.258000000    -4.169000000
H     0.035000000    -7.194000000    -5.354000000
O     5.063000000    -0.838000000     1.820000000
H     4.591000000    -1.530000000     1.357000000
H     4.747000000    -0.894000000     2.721000000
O     5.062000000     1.994000000     1.420000000
H     4.217000000     2.213000000     1.812000000
H     5.232000000     1.096000000     1.705000000
O     1.399000000     2.753000000    -3.374000000
H     1.513000000     3.462000000    -4.007000000
H     0.934000000     3.158000000    -2.642000000
O    -0.709000000    -0.675000000     3.845000000
H    -1.440000000    -1.290000000     3.785000000
H    -1.101000000     0.130000000     4.183000000
O     1.455000000     0.227000000    -4.328000000
H     1.781000000     0.262000000    -5.227000000
H     1.137000000     1.113000000    -4.154000000
O    -5.631000000     2.492000000    -0.503000000
H    -4.778000000     2.852000000    -0.746000000
H    -5.913000000     2.002000000    -1.276000000
O    -2.591000000     2.759000000     2.997000000
H    -2.157000000     2.913000000     2.158000000
H    -2.039000000     2.114000000     3.437000000
O     5.891000000     2.011000000    -2.813000000
H     6.788000000     2.084000000    -3.139000000
H     5.899000000     1.229000000    -2.262000000
O     3.507000000     3.528000000    -1.345000000
H     3.216000000     4.110000000    -2.047000000
H     4.166000000     2.968000000    -1.756000000
O     2.288000000     2.323000000     2.633000000
H     2.024000000     1.420000000     2.454000000
H     2.103000000     2.446000000     3.564000000
O     2.909000000     6.134000000    -2.395000000
H     3.502000000     6.061000000    -1.647000000
H     2.069000000     6.387000000    -2.011000000
O    -3.000000000     3.169000000    -1.442000000
H    -3.065000000     3.986000000    -1.938000000
H    -2.466000000     2.597000000    -1.992000000
O    -1.342000000     5.604000000    -2.446000000
H    -1.642000000     6.512000000    -2.491000000
H    -1.120000000     5.380000000    -3.349000000
O    -0.842000000    -4.913000000     2.698000000
H    -1.240000000    -5.310000000     1.923000000
H    -1.300000000    -4.079000000     2.801000000
O    -2.844000000     7.206000000     1.737000000
H    -2.396000000     7.902000000     1.257000000
H    -2.780000000     6.441000000     1.165000000
O     4.008000000     1.233000000    -5.312000000
H     3.612000000     1.559000000    -4.504000000
H     3.472000000     0.477000000    -5.554000000
O     3.732000000    -1.032000000    -3.400000000
H     3.936000000    -1.858000000    -3.838000000
H     2.886000000    -0.771000000    -3.762000000
O     4.025000000    -4.158000000    -4.732000000
H     4.367000000    -5.051000000    -4.778000000
H     4.478000000    -3.691000000    -5.435000000
O    -1.044000000     5.619000000     4.028000000
H    -1.063000000     5.974000000     3.139000000
H    -1.965000000     5.507000000     4.261000000
O     0.623000000    -6.024000000    -0.506000000
H     1.306000000    -5.756000000    -1.121000000
H     0.163000000    -5.212000000    -0.291000000
O     5.421000000    -2.131000000    -1.587000000
H     4.795000000    -2.270000000    -0.877000000
H     4.899000000    -1.757000000    -2.297000000
O     1.698000000    -0.495000000     2.474000000
H     0.871000000    -0.489000000     2.955000000
H     1.448000000    -0.321000000     1.566000000
O     3.653000000    -3.166000000     0.508000000
H     3.409000000    -3.866000000     1.113000000
H     3.038000000    -3.253000000    -0.220000000
O    -2.311000000    -5.592000000     0.010000000
H    -1.821000000    -6.125000000    -0.616000000
H    -2.053000000    -4.692000000    -0.187000000
O    -3.781000000    -2.419000000     1.332000000
H    -3.930000000    -1.827000000     0.595000000
H    -4.585000000    -2.935000000     1.392000000
O     1.786000000     2.862000000     5.280000000
H     1.709000000     3.816000000     5.284000000
H     1.934000000     2.630000000     6.197000000
O    -4.523000000    -5.685000000     1.475000000
H    -3.638000000    -5.895000000     1.177000000
H    -4.821000000    -5.000000000     0.876000000
