158
-3051.58358
C     0.935000000    -1.075000000     0.416000000
H     1.623000000    -1.895000000     0.608000000
C     0.453000000    -0.836000000    -0.884000000
H     0.767000000    -1.464000000    -1.714000000
C    -0.372000000     0.248000000    -1.139000000
H    -0.704000000     0.390000000    -2.169000000
C    -0.880000000     1.075000000    -0.070000000
H    -1.554000000     1.889000000    -0.325000000
C    -0.454000000     0.755000000     1.216000000
H    -0.863000000     1.365000000     2.017000000
C     0.547000000    -0.263000000     1.445000000
C     1.000000000    -0.597000000     2.846000000
O     1.257000000    -1.736000000     3.153000000
O     1.177000000     0.323000000     3.586000000
O     5.483000000     3.251000000     3.431000000
H     6.108000000     3.314000000     4.153000000
H     4.725000000     2.804000000     3.808000000
O     5.221000000    -0.962000000     4.407000000
H     6.088000000    -1.020000000     4.808000000
H     4.966000000    -1.872000000     4.257000000
O    -1.371000000     0.485000000    -7.998000000
H    -1.287000000     0.306000000    -8.935000000
H    -0.550000000     0.171000000    -7.619000000
O     0.384000000    -4.960000000     0.398000000
H     0.178000000    -5.041000000    -0.533000000
H     0.415000000    -4.016000000     0.555000000
O     0.583000000    -2.818000000    -4.472000000
H     1.249000000    -3.011000000    -5.132000000
H    -0.075000000    -2.303000000    -4.939000000
O    -2.489000000    -2.957000000    -4.968000000
H    -2.070000000    -2.102000000    -5.069000000
H    -2.878000000    -2.931000000    -4.094000000
O     0.183000000     1.120000000    -4.539000000
H     0.242000000     1.747000000    -3.818000000
H     1.093000000     0.939000000    -4.774000000
O     2.524000000     3.764000000     6.017000000
H     2.613000000     2.854000000     5.735000000
H     2.889000000     3.777000000     6.902000000
O     0.213000000    -5.729000000    -2.415000000
H     0.263000000    -4.908000000    -2.904000000
H    -0.030000000    -6.384000000    -3.070000000
O    -2.512000000    -2.371000000     2.725000000
H    -1.827000000    -2.944000000     3.069000000
H    -2.603000000    -1.684000000     3.385000000
O    -4.667000000     4.302000000    -2.463000000
H    -4.998000000     3.791000000    -3.201000000
H    -5.450000000     4.536000000    -1.963000000
O    -5.247000000     3.718000000     2.452000000
H    -4.721000000     2.950000000     2.227000000
H    -5.042000000     4.356000000     1.768000000
O    -3.414000000     1.502000000     1.993000000
H    -2.919000000     1.349000000     1.187000000
H    -2.916000000     2.176000000     2.454000000
O    -1.902000000    -0.504000000    -5.499000000
H    -1.187000000     0.082000000    -5.250000000
H    -1.727000000    -0.717000000    -6.416000000
O    -2.710000000    -0.791000000     5.017000000
H    -3.277000000    -0.021000000     5.062000000
H    -2.071000000    -0.659000000     5.717000000
O     1.770000000    -6.557000000     1.981000000
H     1.183000000    -6.171000000     1.331000000
H     2.155000000    -7.313000000     1.538000000
O    -2.378000000    -2.241000000    -0.128000000
H    -2.456000000    -2.275000000     0.826000000
H    -1.619000000    -1.681000000    -0.287000000
O    -0.227000000     5.022000000     1.208000000
H     0.252000000     4.888000000     0.390000000
H     0.441000000     4.953000000     1.890000000
O    -2.399000000     4.113000000     2.695000000
H    -1.688000000     4.314000000     2.086000000
H    -1.962000000     3.973000000     3.535000000
O     1.536000000     4.009000000    -0.596000000
H     1.790000000     3.107000000    -0.402000000
H     1.365000000     4.013000000    -1.537000000
O     0.027000000     3.720000000    -2.945000000
H    -0.684000000     3.863000000    -2.321000000
H    -0.376000000     3.854000000    -3.803000000
O     6.265000000    -1.753000000    -1.194000000
H     6.140000000    -1.860000000    -2.137000000
H     5.692000000    -2.411000000    -0.801000000
O    -1.413000000     3.123000000    -6.975000000
H    -0.463000000     3.239000000    -6.983000000
H    -1.544000000     2.205000000    -7.212000000
O     2.423000000    -0.298000000     8.087000000
H     2.347000000    -0.828000000     7.294000000
H     2.022000000    -0.833000000     8.772000000
O     3.706000000    -2.854000000     3.135000000
H     3.070000000    -2.217000000     2.809000000
H     3.177000000    -3.611000000     3.389000000
O    -5.292000000    -1.413000000     0.770000000
H    -4.425000000    -1.432000000     0.364000000
H    -5.120000000    -1.245000000     1.696000000
O    -2.112000000     4.425000000    -1.412000000
H    -2.334000000     4.684000000    -0.518000000
H    -2.957000000     4.334000000    -1.852000000
O     4.401000000    -2.970000000     6.304000000
H     3.848000000    -2.228000000     6.059000000
H     4.063000000    -3.250000000     7.155000000
O    -0.485000000     3.789000000     4.486000000
H    -0.285000000     3.008000000     5.002000000
H     0.368000000     4.104000000     4.187000000
O     1.769000000     2.599000000     2.254000000
H     1.909000000     2.268000000     1.367000000
H     1.684000000     1.812000000     2.792000000
O    -4.827000000     2.328000000    -4.476000000
H    -4.389000000     1.604000000    -4.028000000
H    -4.645000000     2.182000000    -5.404000000
O    -1.915000000    -5.911000000     1.694000000
H    -1.653000000    -6.788000000     1.413000000
H    -1.146000000    -5.367000000     1.528000000
O     3.623000000     1.430000000     4.358000000
H     4.201000000     0.675000000     4.464000000
H     2.774000000     1.051000000     4.129000000
O     2.841000000     1.549000000    -0.163000000
H     2.449000000     0.811000000    -0.630000000
H     3.784000000     1.390000000    -0.211000000
O    -5.610000000     0.134000000     3.238000000
H    -5.357000000     0.498000000     4.087000000
H    -4.986000000     0.515000000     2.620000000
O    -0.298000000    -3.825000000     3.567000000
H     0.138000000    -3.003000000     3.340000000
H     0.416000000    -4.417000000     3.803000000
O     4.296000000    -3.641000000    -2.913000000
H     4.038000000    -2.959000000    -2.292000000
H     4.849000000    -3.189000000    -3.550000000
O    -3.734000000    -2.542000000    -2.638000000
H    -4.356000000    -3.262000000    -2.538000000
H    -3.234000000    -2.542000000    -1.821000000
O     4.626000000    -3.531000000     0.316000000
H     4.452000000    -3.270000000     1.220000000
H     4.968000000    -4.423000000     0.386000000
O    -4.361000000    -0.298000000    -3.981000000
H    -3.670000000    -0.423000000    -4.632000000
H    -4.329000000    -1.089000000    -3.443000000
O     3.041000000     0.747000000    -4.471000000
H     3.899000000     0.970000000    -4.110000000
H     3.166000000    -0.114000000    -4.870000000
O     2.060000000     5.108000000     3.227000000
H     2.215000000     4.187000000     3.017000000
H     2.715000000     5.315000000     3.894000000
O     2.043000000    -5.147000000     4.134000000
H     1.776000000    -5.662000000     3.372000000
H     2.951000000    -5.408000000     4.292000000
O    -0.384000000    -2.795000000     6.317000000
H    -0.948000000    -2.332000000     6.936000000
H    -0.990000000    -3.266000000     5.746000000
O     1.812000000    -3.784000000     7.767000000
H     1.089000000    -3.383000000     7.285000000
H     1.490000000    -4.654000000     8.002000000
O     2.184000000    -1.482000000     5.780000000
H     2.181000000    -1.358000000     4.831000000
H     1.452000000    -2.075000000     5.947000000
O    -0.033000000     1.158000000     5.943000000
H     0.467000000     0.796000000     5.211000000
H     0.168000000     0.580000000     6.679000000
O    -2.108000000     4.783000000    -4.900000000
H    -2.871000000     4.419000000    -4.450000000
H    -2.107000000     4.354000000    -5.755000000
