158
-3031.22726
C     1.064000000    -1.111000000     0.054000000
H     1.845000000    -1.866000000     0.012000000
C     0.580000000    -0.524000000    -1.129000000
H     0.833000000    -0.933000000    -2.104000000
C    -0.426000000     0.499000000    -1.029000000
H    -0.833000000     1.022000000    -1.908000000
C    -0.943000000     0.918000000     0.213000000
H    -1.654000000     1.740000000     0.239000000
C    -0.465000000     0.315000000     1.368000000
H    -0.927000000     0.622000000     2.302000000
C     0.509000000    -0.715000000     1.301000000
C     1.014000000    -1.236000000     2.645000000
O     1.956000000    -2.073000000     2.603000000
O     0.647000000    -0.686000000     3.673000000
O     2.971000000     3.946000000     1.427000000
H     2.632000000     3.786000000     0.546000000
H     2.665000000     3.200000000     1.941000000
O    -3.040000000     3.969000000    -3.347000000
H    -3.731000000     4.183000000    -3.973000000
H    -2.349000000     3.574000000    -3.878000000
O    -3.770000000     3.227000000     5.128000000
H    -3.065000000     3.873000000     5.090000000
H    -3.976000000     3.044000000     4.211000000
O     6.127000000    -0.037000000    -1.210000000
H     5.189000000    -0.228000000    -1.182000000
H     6.375000000    -0.186000000    -2.122000000
O     3.420000000    -1.530000000     4.882000000
H     2.777000000    -1.165000000     5.490000000
H     2.904000000    -1.799000000     4.122000000
O    -1.708000000    -3.147000000    -2.714000000
H    -1.631000000    -4.101000000    -2.748000000
H    -0.978000000    -2.829000000    -3.245000000
O     4.888000000     0.437000000     1.981000000
H     4.530000000     0.482000000     2.868000000
H     5.635000000     1.034000000     1.993000000
O     2.037000000     4.344000000     4.642000000
H     2.244000000     3.825000000     5.419000000
H     1.862000000     3.696000000     3.960000000
O     0.063000000    -2.110000000    -4.613000000
H    -0.348000000    -2.360000000    -5.441000000
H     0.869000000    -2.625000000    -4.581000000
O    -3.998000000    -3.024000000    -4.192000000
H    -3.180000000    -2.966000000    -3.697000000
H    -3.758000000    -3.483000000    -4.997000000
O     6.067000000    -1.842000000     4.921000000
H     5.163000000    -1.594000000     4.728000000
H     6.100000000    -2.783000000     4.745000000
O    -1.258000000     2.525000000    -5.180000000
H    -1.404000000     2.411000000    -6.119000000
H    -0.458000000     2.030000000    -5.001000000
O    -1.185000000    -6.388000000     3.336000000
H    -0.288000000    -6.084000000     3.198000000
H    -1.295000000    -7.103000000     2.709000000
O     2.473000000     2.513000000     6.975000000
H     1.838000000     1.817000000     6.806000000
H     2.364000000     2.715000000     7.905000000
O    -3.161000000    -3.743000000     3.987000000
H    -2.552000000    -4.454000000     3.783000000
H    -2.984000000    -3.079000000     3.320000000
O     3.620000000     0.406000000    -0.517000000
H     4.197000000     0.607000000     0.220000000
H     2.771000000     0.766000000    -0.261000000
O    -1.865000000     6.695000000    -2.624000000
H    -0.912000000     6.763000000    -2.669000000
H    -2.064000000     5.843000000    -3.012000000
O     2.405000000     3.840000000    -4.050000000
H     2.468000000     3.482000000    -4.936000000
H     3.164000000     3.478000000    -3.592000000
O    -3.167000000     0.462000000    -4.837000000
H    -2.647000000     1.247000000    -5.009000000
H    -2.531000000    -0.187000000    -4.538000000
O    -2.096000000    -1.777000000    -0.490000000
H    -1.428000000    -1.094000000    -0.418000000
H    -1.822000000    -2.301000000    -1.243000000
O    -5.175000000    -0.813000000     5.269000000
H    -4.570000000    -0.728000000     4.533000000
H    -5.464000000     0.082000000     5.447000000
O    -3.776000000     2.908000000     2.084000000
H    -3.928000000     3.660000000     1.511000000
H    -2.826000000     2.881000000     2.197000000
O    -5.244000000     0.440000000     1.875000000
H    -6.050000000     0.573000000     1.377000000
H    -4.940000000     1.324000000     2.080000000
O    -3.361000000     4.267000000    -0.400000000
H    -2.705000000     4.939000000    -0.214000000
H    -3.198000000     4.018000000    -1.309000000
O     3.370000000     2.099000000    -6.095000000
H     4.238000000     1.906000000    -5.743000000
H     2.948000000     1.244000000    -6.176000000
O     2.213000000    -0.585000000    -6.120000000
H     2.506000000    -0.444000000    -5.220000000
H     2.016000000    -1.520000000    -6.164000000
O     4.140000000    -2.660000000    -2.858000000
H     3.496000000    -2.876000000    -3.533000000
H     4.079000000    -3.379000000    -2.229000000
O     3.476000000     0.183000000    -3.496000000
H     3.499000000     0.478000000    -2.586000000
H     3.422000000    -0.771000000    -3.438000000
O    -1.006000000    -0.743000000     7.798000000
H    -1.715000000    -1.210000000     7.357000000
H    -1.283000000     0.174000000     7.791000000
O     4.346000000    -3.142000000     1.927000000
H     3.496000000    -2.706000000     1.872000000
H     4.973000000    -2.431000000     2.060000000
O    -3.352000000    -2.118000000     1.973000000
H    -2.666000000    -2.182000000     1.309000000
H    -3.732000000    -1.249000000     1.841000000
O     3.553000000    -3.932000000     6.053000000
H     3.464000000    -3.058000000     5.672000000
H     2.653000000    -4.217000000     6.211000000
O     1.247000000     2.149000000     3.119000000
H     0.314000000     2.304000000     2.973000000
H     1.294000000     1.248000000     3.437000000
O    -5.588000000     0.890000000    -3.566000000
H    -4.818000000     0.763000000    -4.121000000
H    -5.452000000     0.294000000    -2.829000000
O     1.338000000    -0.148000000     6.260000000
H     0.703000000    -0.542000000     6.858000000
H     1.024000000    -0.384000000     5.387000000
O     1.761000000     3.013000000    -0.749000000
H     1.016000000     2.516000000    -0.412000000
H     1.425000000     3.448000000    -1.533000000
O     1.516000000    -4.646000000     3.144000000
H     1.651000000    -3.702000000     3.064000000
H     2.367000000    -5.030000000     2.933000000
O     2.293000000    -3.636000000    -5.081000000
H     1.977000000    -4.504000000    -5.332000000
H     3.186000000    -3.597000000    -5.425000000
O     4.430000000     3.349000000    -2.098000000
H     5.311000000     3.170000000    -1.769000000
H     3.853000000     2.853000000    -1.518000000
O    -4.763000000    -1.098000000    -1.893000000
H    -4.547000000    -1.791000000    -2.517000000
H    -4.020000000    -1.079000000    -1.289000000
O     4.443000000    -4.534000000    -1.088000000
H     5.377000000    -4.381000000    -0.946000000
H     4.066000000    -4.554000000    -0.208000000
O     3.974000000    -5.928000000     2.500000000
H     4.107000000    -4.987000000     2.388000000
H     4.622000000    -6.332000000     1.923000000
O     0.916000000     6.091000000    -3.495000000
H     1.535000000     6.367000000    -2.819000000
H     1.281000000     5.274000000    -3.834000000
O    -1.328000000     3.945000000     2.534000000
H    -1.093000000     4.685000000     1.974000000
H    -1.507000000     4.338000000     3.388000000
O    -5.603000000     5.183000000    -2.035000000
H    -6.268000000     5.214000000    -1.346000000
H    -5.141000000     4.358000000    -1.884000000
O     0.688000000    -5.980000000     0.141000000
H     0.558000000    -5.156000000     0.610000000
H     0.076000000    -5.937000000    -0.594000000
O     0.089000000    -2.841000000     5.509000000
H     0.189000000    -2.489000000     4.625000000
H     0.302000000    -3.770000000     5.423000000
O    -3.191000000    -2.080000000     6.509000000
H    -3.829000000    -1.453000000     6.167000000
H    -2.951000000    -2.614000000     5.751000000
