158
-3030.20297
C     0.613000000    -1.310000000    -0.028000000
H     0.978000000    -2.316000000    -0.220000000
C    -0.555000000    -0.931000000    -0.748000000
H    -1.055000000    -1.600000000    -1.444000000
C    -0.958000000     0.419000000    -0.646000000
H    -1.782000000     0.712000000    -1.253000000
C    -0.331000000     1.266000000     0.236000000
H    -0.703000000     2.286000000     0.272000000
C     0.736000000     0.742000000     1.054000000
H     1.109000000     1.384000000     1.848000000
C     1.293000000    -0.517000000     0.844000000
C     2.502000000    -1.025000000     1.603000000
O     2.776000000    -2.211000000     1.508000000
O     2.934000000    -0.323000000     2.481000000
O     1.683000000     0.751000000    -2.434000000
H     1.304000000     0.158000000    -1.785000000
H     1.216000000     0.549000000    -3.245000000
O     7.005000000    -4.072000000     2.974000000
H     6.370000000    -4.115000000     3.689000000
H     7.851000000    -4.216000000     3.397000000
O     3.331000000    -4.400000000     2.951000000
H     3.298000000    -3.994000000     3.817000000
H     3.091000000    -3.698000000     2.347000000
O     1.473000000    -5.650000000    -0.117000000
H     2.251000000    -5.102000000    -0.219000000
H     1.808000000    -6.547000000    -0.139000000
O    -1.031000000    -4.226000000    -3.443000000
H    -1.435000000    -4.465000000    -2.609000000
H    -1.635000000    -4.560000000    -4.106000000
O     1.685000000     4.802000000     5.020000000
H     1.627000000     5.756000000     5.056000000
H     2.079000000     4.618000000     4.167000000
O    -2.427000000     3.399000000     2.420000000
H    -3.156000000     4.003000000     2.282000000
H    -2.696000000     2.593000000     1.979000000
O     8.033000000     0.397000000     3.547000000
H     7.270000000     0.215000000     2.999000000
H     8.073000000    -0.342000000     4.155000000
O    -1.658000000     2.626000000    -3.626000000
H    -1.033000000     3.179000000    -4.094000000
H    -1.240000000     1.766000000    -3.592000000
O    -4.776000000     1.719000000    -0.261000000
H    -5.601000000     1.408000000     0.111000000
H    -4.109000000     1.435000000     0.364000000
O    -3.353000000     0.572000000     2.307000000
H    -3.370000000     0.122000000     3.152000000
H    -3.718000000    -0.062000000     1.691000000
O     3.865000000     4.093000000     3.307000000
H     3.853000000     3.440000000     2.608000000
H     4.788000000     4.332000000     3.395000000
O    -4.317000000    -1.621000000     1.068000000
H    -3.615000000    -2.260000000     1.192000000
H    -4.787000000    -1.929000000     0.293000000
O    -5.144000000     0.800000000    -4.091000000
H    -4.381000000     0.382000000    -3.692000000
H    -5.622000000     0.081000000    -4.505000000
O     1.953000000    -5.641000000    -3.556000000
H     1.575000000    -5.156000000    -2.822000000
H     1.405000000    -5.406000000    -4.305000000
O    -3.345000000    -5.081000000    -1.202000000
H    -3.813000000    -4.835000000    -0.404000000
H    -3.045000000    -5.975000000    -1.038000000
O     3.266000000     4.324000000    -0.012000000
H     3.086000000     3.392000000    -0.132000000
H     4.218000000     4.374000000     0.079000000
O    -0.484000000    -2.286000000     3.787000000
H    -1.363000000    -1.943000000     3.629000000
H    -0.347000000    -2.925000000     3.087000000
O    -2.089000000     5.834000000    -3.252000000
H    -2.553000000     5.734000000    -2.421000000
H    -2.317000000     5.049000000    -3.751000000
O     3.497000000    -4.029000000    -0.234000000
H     3.229000000    -3.319000000     0.349000000
H     4.423000000    -4.167000000    -0.033000000
O     4.123000000     1.405000000     4.510000000
H     4.150000000     1.944000000     3.720000000
H     3.198000000     1.182000000     4.617000000
O     5.686000000    -2.528000000    -2.083000000
H     5.722000000    -2.825000000    -1.174000000
H     5.666000000    -3.334000000    -2.598000000
O     5.326000000    -1.247000000     3.229000000
H     4.463000000    -0.868000000     3.063000000
H     5.274000000    -2.130000000     2.862000000
O     3.861000000     1.904000000     1.758000000
H     3.637000000     1.047000000     2.121000000
H     3.989000000     1.742000000     0.823000000
O    -1.942000000    -3.388000000     1.277000000
H    -1.623000000    -3.139000000     0.410000000
H    -1.187000000    -3.796000000     1.702000000
O    -7.370000000    -0.222000000     0.767000000
H    -8.062000000    -0.852000000     0.969000000
H    -6.651000000    -0.757000000     0.430000000
O    -4.950000000     4.218000000     1.816000000
H    -4.986000000     4.627000000     0.951000000
H    -5.686000000     3.606000000     1.823000000
O     1.408000000     3.417000000    -2.482000000
H     1.661000000     2.498000000    -2.396000000
H     0.502000000     3.446000000    -2.173000000
O    -2.242000000     4.192000000     5.212000000
H    -2.117000000     4.113000000     4.266000000
H    -2.068000000     3.314000000     5.550000000
O    -3.291000000    -1.923000000    -3.154000000
H    -3.952000000    -2.486000000    -3.557000000
H    -2.647000000    -1.774000000    -3.846000000
O    -0.153000000     4.524000000     1.453000000
H    -0.932000000     4.127000000     1.843000000
H     0.540000000     3.878000000     1.594000000
O    -3.749000000     1.353000000    -6.471000000
H    -4.329000000     1.416000000    -5.712000000
H    -2.904000000     1.088000000    -6.105000000
O     5.516000000    -0.782000000     5.969000000
H     5.814000000    -1.083000000     5.111000000
H     4.795000000    -0.183000000     5.775000000
O     1.976000000    -3.223000000     5.229000000
H     1.372000000    -2.774000000     4.638000000
H     2.178000000    -2.575000000     5.904000000
O     5.250000000    -6.068000000     2.073000000
H     4.572000000    -5.638000000     2.594000000
H     5.924000000    -5.398000000     1.959000000
O    -0.159000000     0.424000000    -4.465000000
H    -0.453000000     0.580000000    -5.362000000
H    -0.084000000    -0.528000000    -4.399000000
O    -4.786000000     5.612000000    -0.530000000
H    -5.277000000     6.169000000    -1.135000000
H    -4.412000000     4.928000000    -1.085000000
O     0.930000000     2.588000000     6.355000000
H     1.200000000     3.395000000     5.917000000
H     0.755000000     1.975000000     5.642000000
O     6.401000000    -2.949000000     0.398000000
H     6.650000000    -3.124000000     1.306000000
H     7.216000000    -3.044000000    -0.096000000
O    -5.456000000    -2.342000000    -1.427000000
H    -4.884000000    -1.676000000    -1.809000000
H    -5.397000000    -3.083000000    -2.029000000
O     3.950000000     1.445000000    -0.887000000
H     4.718000000     0.939000000    -1.151000000
H     3.299000000     1.261000000    -1.564000000
O    -0.646000000     7.361000000     0.582000000
H    -1.589000000     7.528000000     0.576000000
H    -0.570000000     6.419000000     0.733000000
O    -5.870000000     3.499000000    -3.450000000
H    -5.225000000     4.011000000    -3.937000000
H    -5.467000000     2.635000000    -3.354000000
O    -3.278000000     3.690000000    -1.700000000
H    -2.733000000     3.053000000    -2.162000000
H    -3.837000000     3.159000000    -1.133000000
O     0.981000000    -2.253000000    -4.100000000
H     1.418000000    -2.253000000    -3.248000000
H     0.422000000    -3.029000000    -4.082000000
O     2.629000000    -2.322000000    -2.152000000
H     3.472000000    -2.039000000    -2.506000000
H     2.843000000    -3.073000000    -1.597000000
O     0.344000000    -4.331000000     2.236000000
H     0.895000000    -4.799000000     2.864000000
H     0.741000000    -4.517000000     1.385000000
O     1.226000000     0.062000000     4.569000000
H     0.540000000    -0.602000000     4.644000000
H     1.835000000    -0.296000000     3.923000000
