158
-3043.65011
C    -1.141000000    -0.946000000     0.044000000
H    -1.808000000    -1.797000000    -0.068000000
C    -0.238000000    -0.805000000    -1.013000000
H    -0.237000000    -1.459000000    -1.882000000
C     0.701000000     0.199000000    -0.942000000
H     1.435000000     0.280000000    -1.780000000
C     0.809000000     1.033000000     0.144000000
H     1.609000000     1.770000000     0.145000000
C    -0.042000000     0.818000000     1.224000000
H     0.208000000     1.351000000     2.138000000
C    -1.119000000    -0.094000000     1.151000000
C    -1.950000000    -0.339000000     2.379000000
O    -2.985000000    -0.960000000     2.391000000
O    -1.408000000    -0.218000000     3.480000000
O     0.103000000     2.896000000     5.357000000
H     0.056000000     2.008000000     5.711000000
H    -0.700000000     2.993000000     4.846000000
O     2.318000000    -2.427000000     2.757000000
H     3.071000000    -2.236000000     3.317000000
H     2.551000000    -2.054000000     1.907000000
O    -3.278000000     1.511000000     6.050000000
H    -3.162000000     2.015000000     5.245000000
H    -3.275000000     0.598000000     5.764000000
O     3.998000000    -0.411000000    -1.416000000
H     4.126000000    -0.217000000    -0.487000000
H     4.881000000    -0.413000000    -1.784000000
O     1.300000000     2.566000000    -3.187000000
H     1.655000000     1.786000000    -3.613000000
H     0.508000000     2.770000000    -3.684000000
O    -3.413000000    -3.665000000    -3.814000000
H    -4.240000000    -3.688000000    -4.295000000
H    -3.672000000    -3.657000000    -2.893000000
O     0.507000000    -2.023000000    -6.910000000
H    -0.049000000    -1.798000000    -6.164000000
H     0.004000000    -1.747000000    -7.676000000
O    -2.620000000    -2.041000000    -5.803000000
H    -2.722000000    -2.079000000    -4.852000000
H    -2.968000000    -2.876000000    -6.115000000
O     3.865000000     1.938000000     5.464000000
H     3.478000000     1.098000000     5.710000000
H     3.573000000     2.082000000     4.564000000
O    -3.539000000    -4.991000000     3.254000000
H    -3.457000000    -5.861000000     2.863000000
H    -3.409000000    -5.137000000     4.191000000
O    -1.040000000    -4.970000000     1.233000000
H    -1.514000000    -5.660000000     1.696000000
H    -1.335000000    -4.158000000     1.646000000
O    -1.296000000    -5.291000000    -4.788000000
H    -2.126000000    -4.818000000    -4.851000000
H    -0.629000000    -4.605000000    -4.772000000
O    -6.703000000    -2.708000000     4.898000000
H    -6.345000000    -3.589000000     4.788000000
H    -5.933000000    -2.147000000     4.995000000
O     3.059000000    -1.826000000    -6.390000000
H     3.108000000    -1.958000000    -5.443000000
H     2.136000000    -1.964000000    -6.603000000
O     4.820000000    -3.651000000    -1.049000000
H     5.184000000    -3.356000000    -1.883000000
H     4.849000000    -4.606000000    -1.099000000
O    -2.003000000     2.578000000    -0.273000000
H    -2.784000000     2.164000000     0.094000000
H    -1.296000000     1.958000000    -0.095000000
O    -4.180000000    -3.205000000     1.328000000
H    -4.005000000    -3.987000000     1.851000000
H    -4.046000000    -2.477000000     1.935000000
O     5.310000000     3.258000000    -1.198000000
H     6.097000000     3.498000000    -0.709000000
H     5.033000000     2.426000000    -0.814000000
O    -4.009000000    -0.894000000    -2.744000000
H    -3.995000000    -1.789000000    -2.405000000
H    -4.005000000    -0.342000000    -1.963000000
O    -2.507000000     1.045000000    -4.123000000
H    -2.048000000     0.577000000    -4.821000000
H    -3.070000000     0.383000000    -3.722000000
O    -7.060000000    -2.711000000     1.323000000
H    -6.236000000    -3.136000000     1.561000000
H    -7.518000000    -3.358000000     0.787000000
O     2.949000000     0.829000000    -4.533000000
H     3.728000000     1.385000000    -4.543000000
H     2.840000000     0.553000000    -5.443000000
O     3.023000000     2.141000000     2.459000000
H     2.714000000     3.047000000     2.446000000
H     2.310000000     1.639000000     2.062000000
O     2.104000000     0.102000000     6.988000000
H     1.218000000    -0.197000000     6.784000000
H     1.980000000     0.964000000     7.385000000
O     2.594000000    -1.452000000    -3.665000000
H     3.057000000    -1.617000000    -2.843000000
H     2.608000000    -0.500000000    -3.760000000
O     1.760000000     4.497000000     3.361000000
H     0.996000000     4.692000000     2.817000000
H     1.453000000     3.831000000     3.975000000
O    -1.365000000     3.373000000    -3.850000000
H    -1.578000000     3.815000000    -3.027000000
H    -1.812000000     2.529000000    -3.790000000
O    -0.570000000     3.871000000     1.765000000
H    -0.947000000     3.995000000     0.894000000
H    -1.222000000     3.352000000     2.236000000
O     6.378000000    -0.473000000    -2.547000000
H     6.911000000    -0.650000000    -1.772000000
H     6.477000000    -1.255000000    -3.089000000
O    -4.241000000    -0.676000000    -0.151000000
H    -3.691000000    -1.203000000     0.429000000
H    -4.871000000    -0.255000000     0.434000000
O     1.248000000     4.536000000    -1.169000000
H     1.395000000     3.813000000    -1.779000000
H     2.120000000     4.897000000    -1.012000000
O    -0.072000000    -1.968000000     7.169000000
H     0.628000000    -2.519000000     7.520000000
H    -0.791000000    -2.576000000     6.997000000
O    -4.565000000     2.143000000     1.392000000
H    -4.748000000     1.307000000     1.821000000
H    -5.407000000     2.415000000     1.028000000
O     3.805000000     4.495000000    -3.296000000
H     4.196000000     3.833000000    -2.726000000
H     2.871000000     4.287000000    -3.299000000
O     4.696000000     0.261000000     1.296000000
H     5.455000000     0.153000000     1.870000000
H     4.118000000     0.857000000     1.773000000
O    -4.441000000    -3.766000000    -1.267000000
H    -5.245000000    -4.280000000    -1.345000000
H    -4.317000000    -3.657000000    -0.324000000
O     0.742000000    -3.745000000    -3.914000000
H     0.527000000    -3.716000000    -2.982000000
H     1.226000000    -2.935000000    -4.073000000
O     2.462000000    -2.399000000    -0.030000000
H     2.322000000    -1.577000000    -0.500000000
H     3.349000000    -2.665000000    -0.272000000
O    -0.449000000    -2.640000000     3.822000000
H     0.398000000    -2.734000000     3.386000000
H    -0.726000000    -1.747000000     3.618000000
O     5.845000000     1.917000000    -3.857000000
H     6.073000000     1.033000000    -3.568000000
H     6.019000000     2.470000000    -3.096000000
O     2.253000000     4.065000000    -6.173000000
H     2.960000000     4.222000000    -5.547000000
H     2.190000000     4.878000000    -6.674000000
O     0.604000000    -3.857000000    -1.310000000
H     0.182000000    -4.426000000    -0.666000000
H     1.159000000    -3.276000000    -0.789000000
O    -6.096000000    -0.093000000     2.064000000
H    -6.367000000     0.144000000     2.950000000
H    -6.287000000    -1.029000000     1.997000000
O    -2.331000000     3.454000000     4.080000000
H    -3.217000000     3.677000000     4.367000000
H    -1.860000000     4.287000000     4.087000000
O    -0.711000000     0.366000000     6.030000000
H    -0.901000000     0.384000000     5.092000000
H    -0.539000000    -0.555000000     6.222000000
O    -4.195000000    -1.431000000     4.665000000
H    -3.587000000    -2.122000000     4.928000000
H    -3.844000000    -1.105000000     3.836000000
O    -2.668000000    -3.481000000     5.876000000
H    -2.502000000    -4.420000000     5.968000000
H    -2.074000000    -3.199000000     5.181000000
O     0.720000000     6.618000000     0.854000000
H    -0.196000000     6.809000000     1.055000000
H     0.685000000     5.854000000     0.280000000
