158
-2996.93447
C    -1.413000000     0.454000000     0.178000000
H    -2.340000000     1.008000000     0.296000000
C    -0.407000000     1.074000000    -0.546000000
H    -0.550000000     2.058000000    -0.983000000
C     0.877000000     0.544000000    -0.672000000
H     1.616000000     1.174000000    -1.237000000
C     1.177000000    -0.622000000     0.038000000
H     2.164000000    -1.072000000    -0.024000000
C     0.116000000    -1.323000000     0.677000000
H     0.397000000    -2.295000000     1.074000000
C    -1.183000000    -0.757000000     0.736000000
C    -2.348000000    -1.481000000     1.382000000
O    -3.435000000    -1.003000000     1.311000000
O    -2.192000000    -2.464000000     2.089000000
O     1.238000000     5.578000000     1.240000000
H     0.436000000     5.689000000     0.729000000
H     1.659000000     4.806000000     0.861000000
O    -6.845000000    -2.069000000    -1.977000000
H    -6.819000000    -3.025000000    -1.945000000
H    -6.529000000    -1.792000000    -1.117000000
O     1.914000000     2.004000000    -3.504000000
H     2.566000000     1.536000000    -2.983000000
H     1.294000000     1.328000000    -3.776000000
O     0.094000000    -5.345000000     5.726000000
H    -0.749000000    -4.993000000     5.443000000
H     0.151000000    -5.115000000     6.654000000
O     3.719000000    -2.065000000     2.444000000
H     3.996000000    -2.056000000     1.528000000
H     3.962000000    -1.200000000     2.776000000
O     1.152000000    -4.476000000     2.063000000
H     1.205000000    -4.614000000     1.117000000
H     0.253000000    -4.711000000     2.290000000
O    -2.675000000    -5.774000000     4.740000000
H    -2.448000000    -6.385000000     5.442000000
H    -3.632000000    -5.786000000     4.712000000
O    -1.812000000    -2.417000000     4.746000000
H    -2.282000000    -3.164000000     5.117000000
H    -2.060000000    -2.414000000     3.821000000
O     0.752000000    -4.613000000    -1.057000000
H     0.951000000    -4.183000000    -1.890000000
H     1.214000000    -5.450000000    -1.103000000
O     2.757000000    -5.991000000     3.478000000
H     2.900000000    -6.576000000     2.734000000
H     2.189000000    -5.302000000     3.135000000
O    -0.672000000    -1.740000000    -2.500000000
H    -0.534000000    -1.287000000    -1.668000000
H    -1.624000000    -1.774000000    -2.599000000
O     3.771000000    -4.057000000    -2.094000000
H     4.060000000    -4.573000000    -2.847000000
H     3.004000000    -3.581000000    -2.411000000
O     6.211000000     4.229000000     1.361000000
H     5.368000000     4.162000000     0.913000000
H     6.570000000     3.343000000     1.331000000
O    -6.266000000     0.548000000     4.086000000
H    -5.555000000     1.005000000     3.636000000
H    -6.295000000    -0.315000000     3.672000000
O     5.896000000     2.110000000    -2.769000000
H     5.305000000     1.392000000    -2.545000000
H     6.772000000     1.755000000    -2.624000000
O     4.131000000     1.573000000     0.269000000
H     5.069000000     1.537000000     0.455000000
H     4.036000000     1.127000000    -0.573000000
O    -0.589000000     5.335000000    -3.463000000
H    -1.258000000     4.779000000    -3.861000000
H     0.123000000     5.349000000    -4.103000000
O    -6.347000000     1.750000000    -1.027000000
H    -7.276000000     1.732000000    -1.259000000
H    -6.127000000     0.836000000    -0.849000000
O    -0.045000000     0.230000000    -4.326000000
H    -0.713000000     0.916000000    -4.340000000
H    -0.537000000    -0.585000000    -4.428000000
O    -6.139000000    -1.192000000     0.354000000
H    -6.718000000    -1.414000000     1.083000000
H    -5.272000000    -1.114000000     0.752000000
O     4.327000000     0.076000000    -1.961000000
H     3.501000000    -0.240000000    -2.327000000
H     4.672000000    -0.669000000    -1.470000000
O    -4.948000000    -3.714000000     2.022000000
H    -4.219000000    -3.139000000     1.787000000
H    -4.867000000    -4.458000000     1.425000000
O     1.832000000    -0.719000000     4.045000000
H     1.704000000     0.078000000     3.530000000
H     2.399000000    -1.267000000     3.501000000
O    -2.545000000    -7.274000000     1.042000000
H    -2.009000000    -6.701000000     1.591000000
H    -1.917000000    -7.706000000     0.463000000
O    -5.927000000     3.153000000     1.255000000
H    -6.259000000     2.773000000     0.441000000
H    -5.493000000     2.425000000     1.699000000
O    -3.925000000     0.909000000    -2.430000000
H    -4.403000000     1.669000000    -2.099000000
H    -3.347000000     1.264000000    -3.105000000
O    -4.696000000    -5.893000000     0.567000000
H    -3.881000000    -6.368000000     0.732000000
H    -5.206000000    -6.479000000     0.008000000
O    -0.849000000     6.503000000    -0.920000000
H    -1.254000000     5.959000000    -1.595000000
H    -0.368000000     7.172000000    -1.408000000
O    -2.153000000     2.954000000     2.905000000
H    -1.466000000     2.914000000     3.570000000
H    -2.057000000     3.822000000     2.512000000
O     3.270000000     2.976000000    -5.663000000
H     2.914000000     2.626000000    -4.847000000
H     3.809000000     3.718000000    -5.390000000
O     1.089000000     1.317000000     2.171000000
H     0.370000000     0.707000000     2.007000000
H     1.503000000     1.433000000     1.316000000
O     0.748000000    -2.029000000     5.894000000
H    -0.093000000    -2.392000000     5.615000000
H     0.972000000    -1.395000000     5.212000000
O     2.251000000    -1.447000000    -3.053000000
H     1.427000000    -1.683000000    -2.627000000
H     2.052000000    -1.469000000    -3.989000000
O    -1.721000000    -4.975000000     2.297000000
H    -1.989000000    -5.228000000     3.180000000
H    -1.771000000    -4.020000000     2.295000000
O     2.897000000     0.592000000    -6.986000000
H     2.554000000     1.308000000    -6.452000000
H     3.273000000    -0.020000000    -6.352000000
O     4.482000000     6.704000000    -0.882000000
H     4.153000000     6.108000000    -0.210000000
H     4.841000000     6.129000000    -1.558000000
O    -1.899000000     5.665000000     1.454000000
H    -1.442000000     5.943000000     0.661000000
H    -2.723000000     6.152000000     1.440000000
O    -3.283000000    -1.342000000    -1.459000000
H    -3.590000000    -0.499000000    -1.794000000
H    -3.653000000    -1.399000000    -0.578000000
O     6.816000000     1.585000000     1.041000000
H     6.908000000     1.018000000     1.806000000
H     7.559000000     1.356000000     0.482000000
O    -3.963000000     1.308000000     2.881000000
H    -3.730000000     0.582000000     2.302000000
H    -3.275000000     1.958000000     2.739000000
O    -2.481000000     1.549000000    -4.957000000
H    -2.976000000     2.144000000    -5.519000000
H    -2.325000000     0.778000000    -5.502000000
O     1.671000000     4.331000000    -1.659000000
H     1.067000000     4.976000000    -2.027000000
H     1.539000000     3.547000000    -2.192000000
O     5.037000000    -2.369000000    -0.535000000
H     4.541000000    -3.133000000    -0.830000000
H     5.944000000    -2.671000000    -0.500000000
O     4.237000000     0.551000000     2.838000000
H     4.228000000     0.934000000     1.961000000
H     5.073000000     0.829000000     3.212000000
O    -1.989000000    -4.603000000    -0.704000000
H    -1.047000000    -4.502000000    -0.839000000
H    -2.092000000    -4.653000000     0.246000000
O     3.762000000     4.099000000     0.048000000
H     3.132000000     4.102000000    -0.673000000
H     3.931000000     3.171000000     0.213000000
O    -5.861000000    -2.186000000     4.134000000
H    -5.582000000    -2.613000000     4.944000000
H    -5.326000000    -2.593000000     3.452000000
O    -2.831000000    -0.210000000     6.065000000
H    -3.676000000    -0.640000000     5.935000000
H    -2.202000000    -0.779000000     5.621000000
