158
-3032.37380
C     0.562000000    -0.513000000    -1.257000000
H     1.106000000    -0.880000000    -2.123000000
C     0.696000000     0.807000000    -0.746000000
H     1.151000000     1.603000000    -1.329000000
C     0.123000000     1.146000000     0.463000000
H    -0.081000000     2.161000000     0.891000000
C    -0.498000000     0.123000000     1.185000000
H    -1.006000000     0.375000000     2.112000000
C    -0.614000000    -1.152000000     0.706000000
H    -1.182000000    -1.900000000     1.254000000
C    -0.099000000    -1.498000000    -0.475000000
C    -0.242000000    -2.857000000    -1.085000000
O    -0.760000000    -3.810000000    -0.454000000
O     0.124000000    -3.092000000    -2.216000000
O    -4.289000000    -6.674000000     0.414000000
H    -3.674000000    -7.307000000     0.785000000
H    -4.022000000    -5.834000000     0.789000000
O     0.328000000     0.443000000    -5.823000000
H     1.264000000     0.548000000    -5.995000000
H     0.277000000    -0.303000000    -5.225000000
O    -0.833000000     6.191000000    -0.803000000
H    -1.349000000     6.997000000    -0.817000000
H    -0.427000000     6.182000000     0.064000000
O     4.544000000     4.325000000    -1.978000000
H     4.332000000     4.761000000    -2.803000000
H     4.742000000     3.423000000    -2.228000000
O     1.903000000     3.847000000     2.033000000
H     2.078000000     3.742000000     1.097000000
H     1.208000000     3.216000000     2.219000000
O    -2.998000000    -4.113000000    -2.263000000
H    -3.030000000    -5.032000000    -1.997000000
H    -2.371000000    -3.711000000    -1.662000000
O    -5.514000000    -2.429000000    -1.783000000
H    -5.974000000    -2.255000000    -2.604000000
H    -4.740000000    -2.929000000    -2.043000000
O     0.665000000    -2.240000000    -4.691000000
H     0.305000000    -2.486000000    -3.839000000
H     0.621000000    -3.043000000    -5.210000000
O     3.576000000     1.510000000    -0.177000000
H     4.238000000     1.808000000     0.447000000
H     2.968000000     2.245000000    -0.251000000
O     3.555000000    -4.938000000    -0.431000000
H     2.792000000    -5.039000000     0.138000000
H     3.983000000    -4.141000000    -0.119000000
O     1.904000000     6.763000000     3.617000000
H     1.842000000     5.920000000     3.168000000
H     2.844000000     6.942000000     3.660000000
O    -1.270000000    -1.710000000     3.940000000
H    -2.165000000    -2.049000000     3.978000000
H    -1.334000000    -0.825000000     4.300000000
O    -3.266000000    -7.247000000    -3.324000000
H    -2.506000000    -6.809000000    -2.941000000
H    -3.032000000    -8.176000000    -3.322000000
O    -1.844000000     3.889000000    -1.881000000
H    -2.005000000     3.421000000    -1.062000000
H    -1.629000000     4.781000000    -1.609000000
O    -1.874000000    -5.927000000     2.917000000
H    -1.119000000    -6.499000000     2.780000000
H    -1.935000000    -5.414000000     2.111000000
O     3.893000000    -1.795000000    -3.343000000
H     3.786000000    -1.674000000    -4.286000000
H     3.435000000    -2.613000000    -3.152000000
O    -1.341000000     0.701000000     5.452000000
H    -1.044000000     1.378000000     6.060000000
H    -2.295000000     0.782000000     5.452000000
O    -2.131000000    -8.267000000     0.719000000
H    -2.298000000    -9.013000000     0.143000000
H    -1.673000000    -7.635000000     0.165000000
O     1.608000000    -7.599000000     1.295000000
H     1.377000000    -6.671000000     1.264000000
H     0.812000000    -8.053000000     1.016000000
O    -3.059000000    -4.294000000     0.684000000
H    -3.513000000    -3.536000000     1.052000000
H    -2.280000000    -3.927000000     0.266000000
O     2.032000000    -6.646000000    -4.744000000
H     2.259000000    -7.532000000    -4.462000000
H     2.295000000    -6.088000000    -4.013000000
O    -3.886000000     5.357000000     0.495000000
H    -4.224000000     5.710000000    -0.328000000
H    -3.573000000     4.481000000     0.269000000
O    -3.126000000     2.254000000     0.305000000
H    -3.711000000     2.262000000     1.062000000
H    -2.635000000     1.437000000     0.390000000
O    -3.126000000    -3.976000000     4.301000000
H    -2.802000000    -4.339000000     5.125000000
H    -2.596000000    -4.401000000     3.626000000
O    -3.754000000     2.790000000     3.072000000
H    -3.856000000     2.553000000     3.994000000
H    -4.100000000     3.680000000     3.015000000
O    -5.254000000     0.469000000     3.087000000
H    -4.579000000     1.148000000     3.071000000
H    -6.080000000     0.953000000     3.083000000
O    -4.048000000    -2.036000000     2.326000000
H    -3.846000000    -2.646000000     3.035000000
H    -4.368000000    -1.250000000     2.770000000
O     1.886000000     3.082000000    -4.965000000
H     1.082000000     3.401000000    -5.376000000
H     1.915000000     3.530000000    -4.119000000
O     0.607000000    -2.917000000     5.982000000
H     0.092000000    -2.305000000     5.456000000
H     0.181000000    -2.914000000     6.839000000
O    -0.860000000     3.182000000     3.115000000
H    -0.989000000     4.071000000     3.444000000
H    -1.719000000     2.768000000     3.199000000
O     3.018000000    -1.029000000    -6.213000000
H     2.233000000    -1.571000000    -6.128000000
H     3.513000000    -1.436000000    -6.924000000
O     3.943000000     1.236000000    -4.475000000
H     3.257000000     1.904000000    -4.453000000
H     3.571000000     0.529000000    -5.002000000
O     2.449000000    -0.648000000     2.410000000
H     1.931000000    -0.147000000     3.040000000
H     2.579000000    -0.047000000     1.676000000
O    -2.130000000     1.830000000    -3.812000000
H    -1.878000000     2.412000000    -3.095000000
H    -1.315000000     1.668000000    -4.287000000
O     1.119000000     5.049000000    -2.733000000
H     0.312000000     5.182000000    -2.236000000
H     0.981000000     5.532000000    -3.548000000
O     3.864000000     3.498000000     3.922000000
H     3.564000000     2.648000000     4.244000000
H     3.211000000     3.750000000     3.269000000
O     4.015000000    -2.537000000     0.877000000
H     3.479000000    -2.085000000     1.528000000
H     4.120000000    -1.901000000     0.169000000
O     0.912000000    -4.215000000    -6.605000000
H     1.118000000    -4.482000000    -7.501000000
H     1.507000000    -4.730000000    -6.060000000
O     1.127000000    -5.074000000     0.794000000
H     0.355000000    -4.808000000     0.295000000
H     1.111000000    -4.519000000     1.574000000
O     4.930000000    -0.577000000    -1.077000000
H     4.407000000     0.203000000    -0.892000000
H     4.656000000    -0.846000000    -1.953000000
O     2.465000000    -4.217000000    -2.816000000
H     2.778000000    -4.409000000    -1.932000000
H     1.682000000    -3.683000000    -2.683000000
O    -1.360000000    -6.486000000    -1.497000000
H    -0.647000000    -7.119000000    -1.576000000
H    -0.952000000    -5.712000000    -1.109000000
O     1.035000000    -2.887000000     2.610000000
H     1.447000000    -2.213000000     2.070000000
H     0.397000000    -2.411000000     3.141000000
O     2.453000000     3.963000000    -0.537000000
H     3.341000000     4.118000000    -0.857000000
H     1.887000000     4.345000000    -1.208000000
O    -2.680000000    -2.822000000    -4.794000000
H    -2.930000000    -3.560000000    -5.349000000
H    -2.690000000    -3.176000000    -3.904000000
O     1.103000000     0.902000000     4.017000000
H     0.415000000     1.558000000     3.902000000
H     0.822000000     0.391000000     4.775000000
O    -1.789000000     5.644000000     3.962000000
H    -2.045000000     5.447000000     4.863000000
H    -1.296000000     6.462000000     4.027000000
O    -5.197000000    -0.489000000     0.166000000
H    -5.084000000    -0.862000000     1.040000000
H    -5.009000000    -1.214000000    -0.430000000
