158
-3044.52983
C    -0.678000000     1.284000000    -0.063000000
H    -1.099000000     2.254000000    -0.315000000
C     0.644000000     1.005000000    -0.459000000
H     1.302000000     1.720000000    -0.946000000
C     1.190000000    -0.243000000    -0.238000000
H     2.271000000    -0.320000000    -0.560000000
C     0.372000000    -1.274000000     0.137000000
H     0.845000000    -2.252000000     0.115000000
C    -0.929000000    -0.975000000     0.540000000
H    -1.580000000    -1.791000000     0.843000000
C    -1.514000000     0.282000000     0.432000000
C    -2.935000000     0.520000000     0.919000000
O    -3.548000000     1.524000000     0.607000000
O    -3.535000000    -0.406000000     1.549000000
O     2.629000000     1.621000000    -3.565000000
H     2.024000000     2.345000000    -3.408000000
H     2.189000000     1.078000000    -4.219000000
O    -1.671000000    -4.731000000     2.532000000
H    -2.194000000    -4.831000000     3.327000000
H    -2.211000000    -4.190000000     1.956000000
O     4.519000000    -0.069000000    -2.072000000
H     4.095000000    -0.863000000    -2.400000000
H     4.034000000     0.648000000    -2.481000000
O     1.046000000    -3.873000000     3.540000000
H     0.916000000    -4.077000000     2.614000000
H     0.713000000    -2.981000000     3.637000000
O    -5.564000000    -4.316000000     3.650000000
H    -4.747000000    -4.115000000     3.194000000
H    -6.045000000    -3.489000000     3.656000000
O    -2.059000000    -0.668000000     3.923000000
H    -1.206000000    -1.030000000     3.685000000
H    -2.494000000    -0.509000000     3.086000000
O     1.833000000    -4.978000000    -3.146000000
H     0.944000000    -5.241000000    -2.907000000
H     2.241000000    -5.781000000    -3.471000000
O     0.552000000     3.373000000    -2.959000000
H     0.106000000     2.628000000    -2.557000000
H    -0.054000000     3.681000000    -3.633000000
O     3.275000000     6.317000000    -0.208000000
H     2.620000000     6.501000000    -0.882000000
H     2.822000000     5.753000000     0.418000000
O     1.762000000     5.089000000     1.851000000
H     0.855000000     5.065000000     1.548000000
H     2.115000000     4.229000000     1.623000000
O     5.017000000    -3.190000000     0.641000000
H     5.791000000    -2.636000000     0.738000000
H     4.288000000    -2.635000000     0.919000000
O    -6.266000000    -1.340000000    -1.995000000
H    -5.356000000    -1.385000000    -2.290000000
H    -6.782000000    -1.534000000    -2.778000000
O     6.777000000    -0.021000000     3.325000000
H     7.607000000    -0.462000000     3.507000000
H     6.711000000    -0.020000000     2.370000000
O    -4.711000000    -1.150000000     4.762000000
H    -3.846000000    -0.752000000     4.664000000
H    -4.884000000    -1.559000000     3.913000000
O     1.666000000    -2.836000000    -5.400000000
H     1.578000000    -2.736000000    -4.452000000
H     2.431000000    -3.401000000    -5.511000000
O    -5.864000000     3.216000000     0.542000000
H    -5.057000000     3.206000000     1.058000000
H    -6.100000000     2.294000000     0.449000000
O    -0.924000000     5.250000000     0.109000000
H    -1.555000000     5.725000000     0.650000000
H    -1.356000000     5.160000000    -0.741000000
O    -8.516000000     0.137000000     1.369000000
H    -8.470000000     0.252000000     2.318000000
H    -7.772000000     0.635000000     1.030000000
O    -3.813000000    -3.131000000     1.709000000
H    -4.299000000    -3.323000000     0.907000000
H    -3.671000000    -2.185000000     1.682000000
O     5.256000000     3.038000000     1.084000000
H     5.651000000     2.201000000     0.839000000
H     5.517000000     3.638000000     0.386000000
O    -8.202000000    -2.643000000     2.722000000
H    -8.497000000    -3.106000000     1.938000000
H    -7.447000000    -2.133000000     2.429000000
O    -2.383000000     4.770000000    -2.322000000
H    -2.895000000     5.326000000    -2.910000000
H    -2.919000000     3.986000000    -2.207000000
O    -5.652000000    -3.439000000    -0.238000000
H    -5.150000000    -3.988000000    -0.840000000
H    -5.857000000    -2.653000000    -0.743000000
O     3.605000000    -2.973000000     4.302000000
H     3.563000000    -2.339000000     3.585000000
H     2.854000000    -3.548000000     4.157000000
O    -0.026000000    -0.828000000    -2.931000000
H    -0.673000000    -0.124000000    -2.969000000
H     0.382000000    -0.732000000    -2.070000000
O    -3.394000000    -1.339000000    -1.959000000
H    -2.823000000    -0.767000000    -1.446000000
H    -2.832000000    -2.068000000    -2.219000000
O     3.721000000     2.638000000     4.799000000
H     4.072000000     1.775000000     5.018000000
H     3.300000000     2.517000000     3.948000000
O    -6.137000000    -1.273000000     1.801000000
H    -5.225000000    -1.209000000     1.517000000
H    -6.621000000    -0.732000000     1.178000000
O     1.440000000    -4.971000000     1.136000000
H     1.051000000    -5.552000000     0.483000000
H     2.041000000    -5.531000000     1.627000000
O     5.973000000     0.270000000     0.426000000
H     5.498000000     0.227000000    -0.403000000
H     6.557000000    -0.488000000     0.407000000
O    -1.730000000     1.290000000    -3.197000000
H    -2.155000000     1.327000000    -4.055000000
H    -2.424000000     1.512000000    -2.577000000
O    -3.925000000     2.675000000    -2.063000000
H    -3.986000000     2.538000000    -1.118000000
H    -4.830000000     2.625000000    -2.371000000
O     6.449000000    -3.242000000    -1.673000000
H     6.360000000    -3.798000000    -2.446000000
H     5.729000000    -3.509000000    -1.101000000
O     1.161000000     6.035000000    -1.976000000
H     0.386000000     5.962000000    -1.419000000
H     1.230000000     5.181000000    -2.402000000
O     0.955000000    -1.240000000     4.476000000
H     0.948000000    -0.438000000     3.952000000
H     0.489000000    -1.006000000     5.278000000
O     4.664000000    -5.565000000    -0.420000000
H     4.723000000    -4.622000000    -0.265000000
H     4.072000000    -5.883000000     0.261000000
O     3.669000000    -2.532000000    -2.927000000
H     4.349000000    -3.112000000    -3.272000000
H     2.868000000    -3.055000000    -2.963000000
O     0.459000000     1.193000000     3.473000000
H     1.123000000     1.699000000     3.004000000
H    -0.375000000     1.523000000     3.138000000
O    -3.792000000     3.130000000     5.285000000
H    -3.211000000     2.435000000     5.596000000
H    -4.254000000     2.740000000     4.542000000
O     4.290000000    -1.038000000     2.410000000
H     4.530000000    -0.504000000     1.652000000
H     4.714000000    -0.606000000     3.151000000
O    -1.547000000    -3.145000000    -2.430000000
H    -1.187000000    -4.018000000    -2.277000000
H    -0.781000000    -2.573000000    -2.471000000
O     5.283000000     2.691000000    -3.828000000
H     5.289000000     2.228000000    -4.665000000
H     4.431000000     2.483000000    -3.445000000
O    -1.841000000     2.981000000     2.706000000
H    -1.812000000     3.390000000     1.840000000
H    -2.727000000     2.627000000     2.774000000
O    -7.317000000     4.756000000    -0.986000000
H    -6.686000000     4.113000000    -0.663000000
H    -7.108000000     5.558000000    -0.508000000
O    -6.044000000     0.678000000     0.025000000
H    -5.150000000     0.745000000     0.360000000
H    -5.959000000     0.172000000    -0.783000000
O    -4.833000000     1.224000000     3.424000000
H    -5.311000000     0.605000000     3.976000000
H    -4.475000000     0.688000000     2.717000000
O     7.186000000    -0.752000000    -2.563000000
H     6.407000000    -0.220000000    -2.400000000
H     6.863000000    -1.653000000    -2.566000000
O     2.606000000     2.198000000     1.988000000
H     3.510000000     2.261000000     1.681000000
H     2.172000000     1.639000000     1.343000000
