158
-3011.71285
C     0.866000000    -0.175000000    -1.169000000
H     1.503000000    -0.462000000    -2.001000000
C     1.295000000    -0.142000000     0.118000000
H     2.332000000    -0.369000000     0.350000000
C     0.350000000    -0.008000000     1.136000000
H     0.718000000     0.098000000     2.142000000
C    -0.975000000     0.067000000     0.919000000
H    -1.626000000     0.163000000     1.784000000
C    -1.423000000     0.037000000    -0.418000000
H    -2.479000000     0.039000000    -0.674000000
C    -0.541000000    -0.023000000    -1.458000000
C    -0.963000000     0.205000000    -2.893000000
O    -0.083000000     0.301000000    -3.787000000
O    -2.150000000     0.303000000    -3.228000000
O     3.461000000    -1.672000000     2.290000000
H     3.164000000    -2.426000000     2.799000000
H     4.407000000    -1.798000000     2.205000000
O    -2.366000000    -3.685000000    -4.880000000
H    -2.470000000    -2.889000000    -5.402000000
H    -2.724000000    -3.456000000    -4.022000000
O     4.231000000    -2.871000000    -0.731000000
H     3.497000000    -2.907000000    -0.117000000
H     4.803000000    -2.188000000    -0.380000000
O     0.366000000    -1.288000000    -5.986000000
H     0.406000000    -2.175000000    -5.627000000
H     0.586000000    -0.720000000    -5.247000000
O    -1.504000000     4.618000000    -0.028000000
H    -2.234000000     4.066000000    -0.310000000
H    -1.216000000     4.229000000     0.798000000
O     1.773000000    -4.813000000     0.378000000
H     1.458000000    -4.850000000     1.281000000
H     1.451000000    -5.621000000    -0.021000000
O     4.701000000     0.200000000     5.750000000
H     4.877000000    -0.625000000     6.202000000
H     5.567000000     0.534000000     5.516000000
O    -1.785000000    -3.993000000     4.560000000
H    -1.739000000    -3.528000000     5.396000000
H    -2.435000000    -3.508000000     4.052000000
O    -5.416000000     1.940000000    -7.125000000
H    -4.975000000     2.083000000    -6.288000000
H    -6.294000000     2.299000000    -6.998000000
O    -3.501000000    -3.506000000     2.624000000
H    -3.556000000    -2.580000000     2.388000000
H    -4.342000000    -3.698000000     3.040000000
O     4.378000000    -3.075000000    -3.351000000
H     4.631000000    -3.108000000    -2.428000000
H     3.433000000    -2.926000000    -3.335000000
O    -2.005000000     0.698000000     6.981000000
H    -2.533000000     0.246000000     7.639000000
H    -1.534000000     1.370000000     7.474000000
O    -3.372000000     2.850000000    -1.111000000
H    -3.509000000     2.190000000    -1.790000000
H    -4.240000000     2.988000000    -0.732000000
O     0.443000000    -3.801000000    -5.109000000
H     0.223000000    -4.720000000    -5.264000000
H     0.777000000    -3.783000000    -4.212000000
O    -2.281000000    -0.997000000    -5.577000000
H    -1.333000000    -1.081000000    -5.685000000
H    -2.388000000    -0.580000000    -4.722000000
O    -6.392000000    -0.383000000     0.363000000
H    -5.719000000    -0.214000000     1.022000000
H    -6.080000000    -1.158000000    -0.105000000
O     5.431000000     0.889000000    -2.648000000
H     4.590000000     1.043000000    -3.080000000
H     5.501000000    -0.064000000    -2.593000000
O    -2.746000000     1.381000000     3.761000000
H    -2.393000000     1.024000000     4.576000000
H    -2.771000000     2.327000000     3.904000000
O     2.137000000     2.781000000    -0.716000000
H     1.508000000     2.178000000    -0.319000000
H     2.940000000     2.658000000    -0.209000000
O    -0.012000000    -5.557000000     2.520000000
H    -0.809000000    -6.000000000     2.229000000
H    -0.325000000    -4.823000000     3.049000000
O    -1.417000000    -1.608000000     5.938000000
H    -1.466000000    -0.655000000     6.015000000
H    -0.480000000    -1.802000000     5.964000000
O    -0.322000000     4.306000000    -2.869000000
H    -0.815000000     3.967000000    -2.122000000
H     0.537000000     4.528000000    -2.509000000
O     2.577000000     1.597000000    -3.264000000
H     2.504000000     1.997000000    -2.397000000
H     1.705000000     1.245000000    -3.440000000
O    -1.945000000     4.001000000    -4.924000000
H    -2.125000000     4.927000000    -5.087000000
H    -1.353000000     4.000000000    -4.172000000
O    -5.975000000     3.370000000    -3.962000000
H    -5.060000000     3.127000000    -4.101000000
H    -6.211000000     2.952000000    -3.134000000
O     1.526000000    -1.495000000     5.358000000
H     2.002000000    -2.229000000     5.747000000
H     1.301000000    -1.796000000     4.477000000
O    -0.628000000     3.050000000     2.501000000
H     0.225000000     3.111000000     2.931000000
H    -0.761000000     2.112000000     2.364000000
O     2.058000000     3.610000000     3.686000000
H     2.650000000     3.743000000     4.426000000
H     2.386000000     2.821000000     3.256000000
O     5.559000000     3.262000000    -1.478000000
H     5.056000000     3.032000000    -0.696000000
H     5.611000000     2.447000000    -1.977000000
O     3.279000000     0.964000000     3.150000000
H     3.281000000     0.158000000     2.633000000
H     3.734000000     0.730000000     3.959000000
O     2.307000000    -0.405000000    -7.788000000
H     2.834000000    -0.362000000    -6.990000000
H     1.401000000    -0.402000000    -7.478000000
O     6.280000000    -1.095000000    -0.296000000
H     6.007000000    -0.860000000     0.591000000
H     7.136000000    -1.507000000    -0.181000000
O    -4.615000000    -0.213000000     2.440000000
H    -4.735000000    -0.764000000     3.213000000
H    -4.053000000     0.502000000     2.741000000
O     2.426000000     0.649000000     7.032000000
H     1.899000000    -0.039000000     6.626000000
H     3.311000000     0.502000000     6.700000000
O    -4.526000000    -1.640000000     4.811000000
H    -3.933000000    -1.749000000     5.555000000
H    -5.191000000    -2.317000000     4.935000000
O    -3.232000000     0.027000000    -7.787000000
H    -2.938000000    -0.249000000    -6.919000000
H    -4.045000000     0.504000000    -7.623000000
O    -2.174000000    -3.447000000    -0.221000000
H    -1.696000000    -4.154000000     0.212000000
H    -1.502000000    -2.797000000    -0.430000000
O     0.214000000    -2.386000000     3.016000000
H    -0.727000000    -2.351000000     3.188000000
H     0.306000000    -2.065000000     2.119000000
O    -4.785000000    -2.450000000    -0.575000000
H    -3.918000000    -2.838000000    -0.458000000
H    -5.387000000    -3.193000000    -0.533000000
O    -0.131000000     1.533000000    -8.605000000
H    -0.371000000     2.405000000    -8.921000000
H     0.032000000     1.654000000    -7.670000000
O     4.593000000    -3.399000000     4.263000000
H     4.677000000    -4.353000000     4.256000000
H     5.487000000    -3.081000000     4.387000000
O    -4.511000000    -1.377000000    -3.114000000
H    -4.700000000    -1.684000000    -2.227000000
H    -3.818000000    -0.726000000    -3.000000000
O    -5.432000000    -0.921000000    -6.066000000
H    -5.104000000    -0.046000000    -5.860000000
H    -5.264000000    -1.432000000    -5.275000000
O     4.268000000     1.990000000     0.865000000
H     5.177000000     1.711000000     0.760000000
H     4.071000000     1.822000000     1.787000000
O    -3.598000000     2.025000000    -4.533000000
H    -3.014000000     2.751000000    -4.753000000
H    -3.044000000     1.410000000    -4.053000000
O    -0.106000000     2.016000000    -5.790000000
H    -0.066000000     1.291000000    -5.166000000
H    -1.010000000     2.326000000    -5.739000000
O     1.611000000    -4.035000000    -2.463000000
H     1.622000000    -4.961000000    -2.706000000
H     1.760000000    -4.034000000    -1.518000000
O     1.528000000     4.330000000    -5.165000000
H     1.360000000     3.389000000    -5.195000000
H     0.914000000     4.663000000    -4.510000000
