158
-3026.42406
C     0.340000000    -0.577000000    -1.301000000
H     0.697000000    -0.909000000    -2.272000000
C     1.061000000    -0.826000000    -0.123000000
H     1.969000000    -1.422000000    -0.176000000
C     0.644000000    -0.116000000     1.032000000
H     1.103000000    -0.294000000     1.981000000
C    -0.557000000     0.549000000     1.024000000
H    -0.910000000     1.016000000     1.940000000
C    -1.311000000     0.683000000    -0.091000000
H    -2.216000000     1.272000000     0.026000000
C    -0.813000000     0.220000000    -1.266000000
C    -1.639000000     0.285000000    -2.546000000
O    -1.129000000     0.013000000    -3.655000000
O    -2.671000000     0.925000000    -2.471000000
O     3.514000000    -2.770000000     6.492000000
H     2.664000000    -3.202000000     6.400000000
H     3.581000000    -2.207000000     5.721000000
O     0.480000000     5.334000000     1.621000000
H     0.603000000     4.561000000     2.172000000
H    -0.146000000     5.055000000     0.953000000
O     2.129000000     5.154000000     5.088000000
H     1.647000000     5.200000000     5.914000000
H     1.673000000     4.481000000     4.583000000
O    -2.207000000     4.060000000    -5.026000000
H    -2.193000000     3.965000000    -5.978000000
H    -2.579000000     4.929000000    -4.877000000
O    -4.655000000    -3.814000000    -2.981000000
H    -3.778000000    -3.589000000    -3.293000000
H    -4.785000000    -3.261000000    -2.211000000
O    -2.021000000    -2.806000000    -3.245000000
H    -1.301000000    -3.157000000    -2.721000000
H    -1.787000000    -1.890000000    -3.392000000
O    -2.727000000    -3.939000000    -6.162000000
H    -2.342000000    -3.684000000    -7.001000000
H    -2.339000000    -3.336000000    -5.528000000
O     0.841000000    -2.868000000     7.024000000
H     0.109000000    -2.570000000     6.485000000
H     0.457000000    -3.520000000     7.610000000
O     6.343000000    -1.285000000     4.053000000
H     6.839000000    -0.492000000     3.853000000
H     5.430000000    -1.041000000     3.902000000
O     1.275000000     3.170000000    -6.863000000
H     0.996000000     3.208000000    -5.948000000
H     1.939000000     2.481000000    -6.882000000
O    -2.694000000    -3.229000000    -0.422000000
H    -3.570000000    -3.045000000    -0.762000000
H    -2.663000000    -2.772000000     0.419000000
O     0.489000000    -0.248000000     4.580000000
H    -0.148000000    -0.784000000     5.053000000
H    -0.017000000     0.500000000     4.263000000
O    -3.103000000     3.896000000    -2.210000000
H    -2.752000000     3.021000000    -2.044000000
H    -3.548000000     3.819000000    -3.054000000
O    -5.213000000    -2.174000000    -0.676000000
H    -5.563000000    -2.007000000     0.199000000
H    -5.046000000    -1.304000000    -1.037000000
O    -0.676000000    -2.379000000    -7.694000000
H    -1.301000000    -1.655000000    -7.669000000
H    -0.029000000    -2.160000000    -7.023000000
O     5.512000000     0.270000000    -1.251000000
H     5.059000000    -0.571000000    -1.318000000
H     5.296000000     0.588000000    -0.374000000
O    -4.640000000     2.359000000     1.370000000
H    -4.234000000     1.955000000     2.137000000
H    -5.216000000     3.033000000     1.731000000
O    -3.492000000    -0.358000000    -5.166000000
H    -4.192000000    -0.083000000    -4.574000000
H    -2.706000000     0.066000000    -4.822000000
O    -2.321000000     4.018000000     1.593000000
H    -2.901000000     3.258000000     1.635000000
H    -2.903000000     4.769000000     1.710000000
O     5.732000000    -3.276000000     0.521000000
H     5.778000000    -2.945000000    -0.376000000
H     4.802000000    -3.236000000     0.743000000
O    -1.323000000     2.164000000     4.061000000
H    -1.393000000     2.766000000     4.801000000
H    -2.215000000     1.844000000     3.927000000
O     2.225000000     1.777000000    -3.217000000
H     1.891000000     1.506000000    -2.362000000
H     1.445000000     2.034000000    -3.709000000
O    -1.658000000     5.605000000    -0.912000000
H    -0.797000000     5.192000000    -0.976000000
H    -2.238000000     5.028000000    -1.410000000
O    -1.327000000    -2.367000000     1.897000000
H    -0.635000000    -3.002000000     2.079000000
H    -0.866000000    -1.600000000     1.557000000
O     3.827000000    -0.041000000    -4.557000000
H     3.490000000     0.709000000    -4.067000000
H     3.208000000    -0.746000000    -4.371000000
O     2.494000000    -3.692000000    -1.609000000
H     2.551000000    -4.624000000    -1.400000000
H     1.588000000    -3.456000000    -1.411000000
O    -0.079000000    -4.800000000     4.603000000
H    -0.949000000    -5.014000000     4.941000000
H     0.501000000    -4.896000000     5.358000000
O     3.423000000    -0.681000000     4.276000000
H     3.728000000    -0.096000000     4.970000000
H     2.469000000    -0.606000000     4.302000000
O     0.952000000     3.388000000     3.516000000
H     0.149000000     2.867000000     3.541000000
H     1.573000000     2.848000000     3.028000000
O     6.108000000     1.631000000     3.840000000
H     6.242000000     2.577000000     3.900000000
H     5.511000000     1.428000000     4.560000000
O     0.715000000     4.745000000    -2.110000000
H     0.748000000     4.315000000    -2.964000000
H     0.862000000     4.039000000    -1.481000000
O     2.399000000    -2.382000000    -4.102000000
H     2.306000000    -3.229000000    -4.538000000
H     2.538000000    -2.601000000    -3.181000000
O    -5.205000000     4.560000000    -0.419000000
H    -5.718000000     3.796000000    -0.684000000
H    -4.341000000     4.413000000    -0.803000000
O     3.562000000    -3.258000000     2.109000000
H     4.258000000    -3.574000000     2.686000000
H     3.447000000    -2.340000000     2.353000000
O    -3.863000000     0.723000000     3.403000000
H    -3.409000000    -0.104000000     3.569000000
H    -4.627000000     0.696000000     3.979000000
O    -1.321000000    -1.567000000     6.084000000
H    -1.943000000    -1.900000000     5.437000000
H    -1.870000000    -1.229000000     6.792000000
O     0.008000000    -1.713000000    -5.058000000
H     0.893000000    -1.754000000    -4.698000000
H    -0.325000000    -0.860000000    -4.778000000
O    -2.952000000    -2.134000000     4.093000000
H    -2.459000000    -2.321000000     3.294000000
H    -3.402000000    -2.954000000     4.295000000
O     3.006000000     1.977000000     1.772000000
H     3.505000000     1.375000000     2.324000000
H     3.657000000     2.599000000     1.447000000
O    -4.954000000     0.781000000    -0.999000000
H    -4.139000000     0.909000000    -1.485000000
H    -4.804000000     1.218000000    -0.161000000
O    -2.043000000     2.979000000    -7.747000000
H    -2.835000000     2.898000000    -8.279000000
H    -2.012000000     2.168000000    -7.239000000
O    -7.019000000     2.511000000    -2.317000000
H    -6.605000000     1.787000000    -1.847000000
H    -7.094000000     2.199000000    -3.219000000
O     0.761000000    -4.263000000     2.276000000
H     0.629000000    -4.517000000     3.189000000
H     1.670000000    -3.964000000     2.239000000
O    -3.352000000    -0.984000000    -7.832000000
H    -3.384000000    -0.765000000    -6.901000000
H    -3.655000000    -0.191000000    -8.275000000
O     1.494000000     2.549000000    -0.304000000
H     2.104000000     2.549000000     0.433000000
H     0.778000000     1.978000000    -0.023000000
O    -0.110000000     2.333000000    -4.580000000
H    -0.711000000     3.003000000    -4.907000000
H    -0.675000000     1.593000000    -4.358000000
O     4.906000000    -2.360000000    -1.927000000
H     5.193000000    -2.482000000    -2.832000000
H     4.221000000    -3.017000000    -1.802000000
O    -0.230000000    -3.768000000    -1.288000000
H    -1.006000000    -3.277000000    -1.016000000
H    -0.368000000    -4.647000000    -0.934000000
