158
-3007.84304
C     0.353000000    -0.429000000    -1.396000000
H     0.690000000    -0.838000000    -2.345000000
C     1.262000000    -0.235000000    -0.331000000
H     2.344000000    -0.316000000    -0.393000000
C     0.798000000     0.135000000     0.872000000
H     1.427000000     0.082000000     1.729000000
C    -0.478000000     0.522000000     1.042000000
H    -0.728000000     0.718000000     2.081000000
C    -1.430000000     0.336000000     0.105000000
H    -2.508000000     0.397000000     0.237000000
C    -1.060000000    -0.214000000    -1.138000000
C    -2.003000000    -0.524000000    -2.275000000
O    -1.562000000    -0.685000000    -3.390000000
O    -3.193000000    -0.351000000    -2.142000000
O    -0.746000000     4.575000000    -0.662000000
H    -0.018000000     3.957000000    -0.734000000
H    -1.435000000     4.082000000    -0.216000000
O    -3.415000000    -4.345000000    -1.668000000
H    -3.945000000    -4.339000000    -2.465000000
H    -3.875000000    -3.757000000    -1.069000000
O     4.523000000     0.421000000     6.736000000
H     4.000000000     0.624000000     5.960000000
H     5.429000000     0.449000000     6.429000000
O    -2.102000000    -4.677000000     1.247000000
H    -1.543000000    -3.900000000     1.279000000
H    -2.376000000    -4.738000000     0.332000000
O    -0.100000000    -2.865000000    -4.153000000
H     0.311000000    -3.110000000    -3.324000000
H    -0.906000000    -2.416000000    -3.898000000
O    -1.099000000    -3.803000000    -6.407000000
H    -0.797000000    -3.186000000    -7.075000000
H    -0.749000000    -3.456000000    -5.586000000
O    -2.511000000     1.939000000     4.767000000
H    -2.631000000     2.822000000     4.418000000
H    -1.630000000     1.948000000     5.142000000
O    -4.338000000     2.603000000    -6.298000000
H    -4.073000000     1.868000000    -5.744000000
H    -3.552000000     3.145000000    -6.369000000
O    -4.161000000    -0.138000000     4.338000000
H    -4.274000000    -0.593000000     5.173000000
H    -3.798000000     0.715000000     4.577000000
O    -4.607000000    -3.773000000     2.372000000
H    -5.463000000    -3.966000000     1.989000000
H    -4.053000000    -3.556000000     1.623000000
O     2.918000000     0.373000000     4.469000000
H     2.297000000    -0.328000000     4.666000000
H     2.370000000     1.136000000     4.289000000
O    -2.991000000     2.324000000    -2.714000000
H    -2.813000000     1.384000000    -2.745000000
H    -3.789000000     2.399000000    -2.192000000
O    -3.612000000    -2.042000000    -0.071000000
H    -4.316000000    -1.613000000     0.415000000
H    -3.517000000    -1.521000000    -0.868000000
O     2.715000000     0.841000000    -4.010000000
H     1.964000000     1.192000000    -3.532000000
H     2.331000000     0.261000000    -4.668000000
O     6.409000000    -0.184000000     0.461000000
H     6.145000000    -0.065000000     1.373000000
H     5.602000000    -0.428000000     0.007000000
O    -4.463000000     1.434000000     1.747000000
H    -5.102000000     0.766000000     1.996000000
H    -4.604000000     2.145000000     2.371000000
O    -3.279000000     0.260000000    -5.387000000
H    -2.362000000     0.036000000    -5.548000000
H    -3.558000000    -0.350000000    -4.705000000
O    -2.858000000     3.496000000     0.901000000
H    -3.254000000     2.641000000     1.068000000
H    -3.592000000     4.110000000     0.932000000
O     5.707000000    -3.033000000     1.413000000
H     5.341000000    -2.478000000     0.723000000
H     4.951000000    -3.498000000     1.772000000
O    -1.058000000     4.542000000     2.962000000
H    -1.841000000     4.569000000     3.513000000
H    -1.259000000     3.886000000     2.294000000
O     4.440000000     4.177000000    -1.436000000
H     4.392000000     5.131000000    -1.374000000
H     3.527000000     3.892000000    -1.446000000
O    -0.727000000     3.666000000    -3.790000000
H    -1.539000000     3.177000000    -3.655000000
H    -0.130000000     3.328000000    -3.123000000
O    -0.427000000    -2.814000000     1.153000000
H     0.085000000    -3.038000000     1.930000000
H    -0.488000000    -1.859000000     1.172000000
O     5.197000000    -0.122000000    -2.859000000
H     5.586000000     0.724000000    -2.639000000
H     4.411000000     0.098000000    -3.358000000
O     3.201000000    -4.819000000    -1.105000000
H     3.411000000    -5.685000000    -0.755000000
H     2.245000000    -4.800000000    -1.139000000
O     4.162000000    -2.487000000     4.781000000
H     3.852000000    -1.748000000     5.304000000
H     3.764000000    -3.255000000     5.192000000
O     1.248000000     2.906000000     4.480000000
H     1.960000000     3.492000000     4.224000000
H     0.451000000     3.369000000     4.223000000
O     6.307000000     2.680000000     4.166000000
H     6.057000000     1.773000000     3.991000000
H     6.938000000     2.892000000     3.478000000
O     5.381000000    -0.007000000     3.051000000
H     4.573000000     0.269000000     3.483000000
H     5.206000000    -0.903000000     2.765000000
O    -0.422000000     1.948000000     7.001000000
H    -0.484000000     2.858000000     7.290000000
H    -0.901000000     1.453000000     7.665000000
O     4.045000000    -3.273000000    -3.453000000
H     4.421000000    -3.371000000    -4.327000000
H     4.083000000    -4.152000000    -3.076000000
O    -6.340000000     2.670000000    -2.912000000
H    -6.156000000     2.922000000    -2.007000000
H    -6.199000000     1.724000000    -2.930000000
O     3.912000000    -4.323000000     2.803000000
H     4.539000000    -5.042000000     2.885000000
H     4.245000000    -3.646000000     3.393000000
O     2.669000000     3.438000000     7.016000000
H     2.559000000     2.790000000     7.713000000
H     2.186000000     3.075000000     6.273000000
O    -5.941000000    -1.101000000     2.132000000
H    -6.451000000    -1.908000000     2.208000000
H    -5.278000000    -1.172000000     2.819000000
O     0.657000000    -0.606000000     5.892000000
H    -0.133000000    -0.830000000     5.399000000
H     0.531000000     0.310000000     6.142000000
O     2.883000000    -1.733000000    -5.393000000
H     3.383000000    -2.071000000    -4.651000000
H     2.032000000    -2.166000000    -5.326000000
O     3.616000000     4.062000000     3.892000000
H     4.420000000     3.589000000     4.107000000
H     3.754000000     4.941000000     4.246000000
O    -1.103000000    -1.152000000     3.858000000
H    -1.661000000    -0.470000000     3.484000000
H    -1.710000000    -1.733000000     4.316000000
O     4.127000000     2.796000000     1.316000000
H     4.936000000     3.190000000     0.991000000
H     4.058000000     3.101000000     2.221000000
O    -1.247000000    -4.074000000     5.015000000
H    -1.792000000    -4.660000000     4.490000000
H    -0.560000000    -3.784000000     4.414000000
O    -5.414000000     0.428000000    -1.006000000
H    -4.635000000     0.097000000    -1.452000000
H    -5.074000000     0.879000000    -0.233000000
O     1.154000000    -4.147000000     3.544000000
H     1.636000000    -4.389000000     4.335000000
H     1.833000000    -3.906000000     2.914000000
O    -0.001000000     0.433000000    -5.039000000
H    -0.648000000     0.044000000    -4.450000000
H    -0.161000000     0.009000000    -5.883000000
O     1.640000000     3.054000000    -0.702000000
H     2.248000000     3.217000000     0.019000000
H     1.380000000     2.139000000    -0.594000000
O     0.194000000     2.797000000    -6.506000000
H     0.090000000     2.108000000    -5.850000000
H    -0.324000000     3.528000000    -6.170000000
O     4.546000000    -1.830000000    -0.879000000
H     4.649000000    -1.170000000    -1.565000000
H     4.083000000    -2.550000000    -1.308000000
O     0.528000000    -4.094000000    -1.208000000
H     0.140000000    -4.788000000    -0.674000000
H     0.343000000    -3.289000000    -0.725000000
