158
-3031.24890
C    -0.504000000    -0.307000000    -1.366000000
H    -0.968000000    -0.652000000    -2.286000000
C    -1.150000000    -0.675000000    -0.145000000
H    -2.094000000    -1.208000000    -0.221000000
C    -0.584000000    -0.310000000     1.045000000
H    -1.123000000    -0.376000000     1.957000000
C     0.617000000     0.428000000     1.088000000
H     0.930000000     0.772000000     2.071000000
C     1.251000000     0.767000000    -0.111000000
H     2.186000000     1.322000000    -0.124000000
C     0.694000000     0.382000000    -1.377000000
C     1.517000000     0.677000000    -2.614000000
O     1.015000000     0.235000000    -3.653000000
O     2.536000000     1.278000000    -2.559000000
O     5.311000000     3.528000000    -5.273000000
H     4.621000000     2.902000000    -5.054000000
H     5.866000000     3.555000000    -4.493000000
O    -0.127000000     4.522000000    -3.016000000
H    -0.034000000     3.746000000    -2.463000000
H     0.716000000     4.969000000    -2.945000000
O     2.821000000    -0.923000000     3.180000000
H     2.950000000     0.025000000     3.152000000
H     2.403000000    -1.132000000     2.345000000
O     0.347000000     1.341000000    -6.113000000
H    -0.029000000     0.610000000    -6.603000000
H     0.538000000     0.977000000    -5.248000000
O    -0.548000000     4.020000000    -6.472000000
H    -0.493000000     4.357000000    -5.578000000
H     0.064000000     3.284000000    -6.489000000
O    -0.693000000     3.422000000     0.723000000
H     0.091000000     3.914000000     0.478000000
H    -0.357000000     2.597000000     1.074000000
O     7.345000000    -0.063000000    -2.677000000
H     6.419000000    -0.259000000    -2.536000000
H     7.648000000    -0.750000000    -3.270000000
O     0.764000000     4.175000000     4.147000000
H     1.007000000     3.620000000     4.888000000
H    -0.104000000     4.510000000     4.374000000
O    -4.472000000    -0.893000000    -2.719000000
H    -4.134000000    -1.013000000    -3.607000000
H    -5.176000000    -0.252000000    -2.815000000
O     3.539000000     1.176000000    -5.041000000
H     3.051000000     0.385000000    -5.271000000
H     3.091000000     1.517000000    -4.267000000
O     3.335000000    -1.051000000    -8.355000000
H     4.160000000    -1.458000000    -8.091000000
H     3.021000000    -0.611000000    -7.565000000
O     6.038000000     3.474000000    -2.538000000
H     6.926000000     3.118000000    -2.541000000
H     6.141000000     4.370000000    -2.218000000
O     3.587000000    -2.629000000    -0.995000000
H     3.423000000    -3.207000000    -1.740000000
H     2.789000000    -2.684000000    -0.469000000
O    -1.739000000     5.082000000     4.753000000
H    -2.390000000     5.410000000     5.372000000
H    -1.939000000     4.149000000     4.667000000
O    -4.909000000    -0.782000000     3.835000000
H    -5.305000000    -1.584000000     3.496000000
H    -5.499000000    -0.500000000     4.534000000
O    -4.584000000     0.852000000     1.782000000
H    -5.076000000     0.340000000     1.140000000
H    -4.572000000     0.305000000     2.567000000
O     1.179000000    -3.993000000     5.410000000
H     0.457000000    -3.491000000     5.030000000
H     0.778000000    -4.816000000     5.689000000
O     3.950000000     2.807000000    -0.959000000
H     4.731000000     3.094000000    -1.432000000
H     3.430000000     2.343000000    -1.614000000
O     2.748000000     5.157000000     2.568000000
H     2.492000000     4.821000000     1.710000000
H     1.989000000     4.993000000     3.127000000
O     0.310000000    -4.944000000    -0.446000000
H     1.160000000    -5.349000000    -0.271000000
H    -0.324000000    -5.645000000    -0.296000000
O    -2.352000000    -0.522000000     4.862000000
H    -2.004000000    -1.298000000     4.423000000
H    -3.285000000    -0.523000000     4.647000000
O    -3.236000000     2.419000000    -0.690000000
H    -3.477000000     1.530000000    -0.431000000
H    -2.495000000     2.640000000    -0.126000000
O    -1.324000000    -5.410000000     2.642000000
H    -0.434000000    -5.623000000     2.362000000
H    -1.687000000    -6.244000000     2.940000000
O     4.691000000    -1.165000000     5.505000000
H     4.158000000    -1.527000000     4.797000000
H     5.504000000    -1.670000000     5.476000000
O     2.843000000     1.984000000     3.181000000
H     2.112000000     2.575000000     3.363000000
H     3.414000000     2.067000000     3.945000000
O    -6.126000000    -0.352000000    -0.148000000
H    -6.356000000    -1.267000000     0.012000000
H    -5.551000000    -0.380000000    -0.914000000
O     4.747000000     1.147000000     1.478000000
H     4.006000000     1.291000000     2.066000000
H     4.637000000     1.803000000     0.789000000
O     0.637000000    -4.768000000    -4.058000000
H     0.327000000    -3.863000000    -4.039000000
H    -0.149000000    -5.294000000    -3.911000000
O     0.525000000     0.038000000     6.276000000
H     1.004000000    -0.715000000     6.623000000
H    -0.351000000    -0.300000000     6.091000000
O    -0.278000000    -2.078000000    -4.398000000
H     0.219000000    -1.370000000    -3.987000000
H    -0.459000000    -1.760000000    -5.283000000
O     2.028000000     4.470000000     0.033000000
H     1.911000000     5.229000000    -0.539000000
H     2.692000000     3.939000000    -0.407000000
O     2.618000000    -4.317000000     2.821000000
H     2.324000000    -3.882000000     3.622000000
H     2.344000000    -3.732000000     2.116000000
O    -1.739000000     2.126000000     4.599000000
H    -0.963000000     1.943000000     5.129000000
H    -2.224000000     1.301000000     4.592000000
O     6.213000000    -1.501000000     2.470000000
H     5.471000000    -0.907000000     2.580000000
H     6.055000000    -1.927000000     1.628000000
O    -4.121000000     3.208000000     2.943000000
H    -4.584000000     2.517000000     2.471000000
H    -3.197000000     3.056000000     2.745000000
O     1.099000000    -2.645000000     1.004000000
H     0.708000000    -3.303000000     0.430000000
H     0.493000000    -1.905000000     0.968000000
O     0.936000000     2.707000000     6.488000000
H     1.003000000     1.769000000     6.309000000
H     0.899000000     2.766000000     7.443000000
O    -3.823000000    -2.923000000    -0.898000000
H    -4.663000000    -2.952000000    -0.439000000
H    -3.956000000    -2.286000000    -1.600000000
O    -6.231000000    -2.901000000     2.642000000
H    -6.653000000    -2.501000000     1.882000000
H    -5.774000000    -3.664000000     2.288000000
O    -3.870000000    -5.526000000    -2.270000000
H    -3.587000000    -4.832000000    -1.675000000
H    -4.488000000    -5.097000000    -2.862000000
O    -1.301000000    -3.092000000     4.316000000
H    -1.224000000    -3.744000000     3.620000000
H    -2.132000000    -3.297000000     4.745000000
O    -3.257000000    -2.424000000    -4.708000000
H    -2.485000000    -2.464000000    -4.143000000
H    -3.237000000    -3.245000000    -5.200000000
O     4.650000000     1.753000000    -7.515000000
H     4.199000000     1.826000000    -6.674000000
H     5.461000000     2.247000000    -7.396000000
O    -0.762000000    -1.077000000    -6.963000000
H    -1.622000000    -1.470000000    -6.815000000
H    -0.527000000    -1.344000000    -7.852000000
O     7.201000000     0.473000000    -0.089000000
H     6.277000000     0.222000000    -0.105000000
H     7.526000000     0.247000000    -0.961000000
O    -4.362000000    -4.839000000     1.695000000
H    -3.412000000    -4.741000000     1.635000000
H    -4.559000000    -5.598000000     1.146000000
O     4.791000000    -0.167000000    -1.818000000
H     4.083000000     0.334000000    -2.222000000
H     4.352000000    -0.910000000    -1.404000000
O     2.074000000    -1.095000000    -5.742000000
H     2.178000000    -1.961000000    -5.347000000
H     1.742000000    -0.546000000    -5.032000000
