158
-3016.52710
C    -1.076000000    -0.667000000    -0.835000000
H    -1.950000000    -1.111000000    -1.306000000
C    -1.286000000    -0.072000000     0.392000000
H    -2.266000000     0.062000000     0.842000000
C    -0.203000000     0.474000000     1.116000000
H    -0.428000000     1.012000000     2.034000000
C     1.121000000     0.334000000     0.590000000
H     1.925000000     0.781000000     1.169000000
C     1.291000000    -0.218000000    -0.690000000
H     2.259000000    -0.284000000    -1.180000000
C     0.209000000    -0.665000000    -1.410000000
C     0.447000000    -1.142000000    -2.830000000
O    -0.362000000    -1.027000000    -3.661000000
O     1.558000000    -1.644000000    -3.095000000
O    -1.929000000    -2.116000000    -5.599000000
H    -1.568000000    -1.768000000    -4.784000000
H    -1.719000000    -3.050000000    -5.574000000
O     1.291000000     3.302000000    -5.008000000
H     1.281000000     3.000000000    -4.100000000
H     0.608000000     2.787000000    -5.439000000
O     2.810000000    -3.531000000     3.395000000
H     2.285000000    -2.888000000     2.919000000
H     2.640000000    -4.359000000     2.946000000
O    -0.473000000     1.094000000    -5.383000000
H    -0.159000000     0.713000000    -6.203000000
H    -0.478000000     0.363000000    -4.765000000
O    -4.106000000    -0.490000000    -3.301000000
H    -4.238000000    -0.896000000    -4.158000000
H    -4.005000000     0.443000000    -3.492000000
O    -0.934000000     2.959000000     0.006000000
H    -0.187000000     3.246000000     0.531000000
H    -0.928000000     2.005000000     0.082000000
O     1.931000000     3.334000000     3.635000000
H     2.573000000     3.714000000     4.235000000
H     1.083000000     3.583000000     4.003000000
O    -3.168000000     0.150000000    -7.152000000
H    -2.548000000     0.664000000    -6.634000000
H    -2.745000000    -0.702000000    -7.255000000
O     3.960000000     2.034000000     2.344000000
H     3.332000000     2.697000000     2.627000000
H     3.980000000     1.400000000     3.062000000
O     3.421000000     0.144000000    -4.656000000
H     3.520000000     0.157000000    -5.608000000
H     2.878000000    -0.625000000    -4.482000000
O    -5.961000000     1.701000000     0.664000000
H    -5.793000000     2.528000000     0.212000000
H    -5.094000000     1.317000000     0.793000000
O     4.115000000    -4.185000000    -0.580000000
H     4.636000000    -3.408000000    -0.782000000
H     4.572000000    -4.596000000     0.154000000
O     4.637000000    -3.003000000    -4.513000000
H     4.028000000    -2.897000000    -5.244000000
H     4.878000000    -3.929000000    -4.535000000
O    -6.283000000     2.107000000     3.489000000
H    -6.523000000     1.611000000     4.271000000
H    -5.468000000     1.704000000     3.190000000
O    -3.997000000     0.733000000     3.772000000
H    -4.376000000    -0.086000000     4.092000000
H    -3.128000000     0.766000000     4.172000000
O    -1.701000000    -4.897000000    -4.932000000
H    -2.355000000    -5.595000000    -4.963000000
H    -0.872000000    -5.352000000    -4.787000000
O     6.813000000    -1.899000000     0.974000000
H     6.160000000    -1.246000000     0.722000000
H     6.908000000    -2.455000000     0.201000000
O     4.121000000    -1.812000000    -2.224000000
H     4.576000000    -2.250000000    -2.943000000
H     3.227000000    -1.690000000    -2.546000000
O     1.178000000     4.333000000     1.026000000
H     1.977000000     4.828000000     1.209000000
H     1.228000000     3.574000000     1.607000000
O     0.465000000     7.142000000     1.675000000
H     0.482000000     6.185000000     1.711000000
H     0.818000000     7.355000000     0.812000000
O    -2.088000000    -2.326000000     6.797000000
H    -1.537000000    -2.891000000     7.339000000
H    -1.842000000    -2.542000000     5.898000000
O    -1.319000000     1.218000000     4.790000000
H    -0.548000000     0.744000000     5.100000000
H    -1.699000000     1.602000000     5.580000000
O    -4.106000000     3.125000000    -0.938000000
H    -3.371000000     3.205000000    -0.331000000
H    -4.616000000     3.924000000    -0.804000000
O     0.061000000     5.326000000     5.381000000
H    -0.626000000     5.890000000     5.027000000
H    -0.386000000     4.782000000     6.029000000
O     3.404000000     0.614000000     4.556000000
H     2.756000000     0.024000000     4.943000000
H     3.310000000     1.429000000     5.050000000
O     0.978000000    -2.609000000     1.740000000
H     0.419000000    -1.864000000     1.960000000
H     1.527000000    -2.292000000     1.023000000
O     0.505000000    -6.022000000    -3.804000000
H     0.997000000    -5.275000000    -3.463000000
H     0.963000000    -6.788000000    -3.460000000
O     1.162000000    -2.927000000     5.503000000
H     0.939000000    -3.785000000     5.865000000
H     1.734000000    -3.121000000     4.761000000
O    -2.347000000     5.996000000     0.519000000
H    -1.795000000     5.215000000     0.545000000
H    -1.800000000     6.662000000     0.101000000
O    -1.640000000    -3.553000000    -2.382000000
H    -1.489000000    -2.629000000    -2.580000000
H    -1.775000000    -3.963000000    -3.236000000
O    -1.092000000     2.907000000    -2.763000000
H    -1.704000000     2.182000000    -2.888000000
H    -1.032000000     3.009000000    -1.813000000
O    -0.148000000     0.238000000    -7.850000000
H    -0.318000000    -0.579000000    -8.319000000
H     0.385000000     0.754000000    -8.454000000
O     5.266000000     0.431000000     0.737000000
H     5.191000000     0.595000000    -0.203000000
H     4.656000000     1.050000000     1.138000000
O    -3.959000000    -5.074000000    -1.895000000
H    -3.089000000    -4.710000000    -1.734000000
H    -4.194000000    -5.505000000    -1.073000000
O     5.857000000    -0.485000000     4.180000000
H     5.019000000    -0.022000000     4.171000000
H     5.735000000    -1.215000000     3.573000000
O     5.549000000     4.311000000     1.395000000
H     5.207000000     3.529000000     1.827000000
H     6.366000000     4.501000000     1.856000000
O     0.764000000    -0.407000000     5.686000000
H     0.801000000    -1.362000000     5.633000000
H     0.917000000    -0.212000000     6.610000000
O    -2.123000000    -3.028000000     1.875000000
H    -2.229000000    -2.120000000     1.592000000
H    -1.336000000    -3.330000000     1.422000000
O    -1.247000000     3.613000000     3.286000000
H    -1.544000000     3.949000000     4.132000000
H    -1.079000000     2.684000000     3.442000000
O    -4.016000000     2.164000000    -3.576000000
H    -3.986000000     2.635000000    -2.743000000
H    -3.672000000     2.787000000    -4.216000000
O    -0.617000000    -4.544000000     0.056000000
H     0.322000000    -4.656000000    -0.096000000
H    -0.959000000    -4.232000000    -0.782000000
O    -5.634000000    -3.689000000    -3.763000000
H    -5.061000000    -4.136000000    -3.141000000
H    -5.294000000    -2.795000000    -3.803000000
O     3.454000000    -2.633000000    -6.876000000
H     2.979000000    -3.453000000    -7.013000000
H     2.784000000    -2.013000000    -6.588000000
O    -6.767000000    -1.037000000    -3.912000000
H    -6.124000000    -0.770000000    -3.254000000
H    -6.278000000    -1.045000000    -4.735000000
O     4.939000000     1.334000000    -1.747000000
H     4.499000000     0.896000000    -2.475000000
H     4.921000000     2.263000000    -1.980000000
O    -3.100000000     2.311000000     1.698000000
H    -3.231000000     1.901000000     2.553000000
H    -2.466000000     3.009000000     1.862000000
O     2.109000000    -4.226000000    -2.406000000
H     1.886000000    -3.321000000    -2.627000000
H     2.790000000    -4.148000000    -1.738000000
O     1.186000000    -1.617000000    -6.070000000
H     0.382000000    -1.480000000    -6.571000000
H     0.917000000    -1.527000000    -5.156000000
