158
-3053.50392
C    -0.208000000    -1.207000000    -0.840000000
H    -0.581000000    -1.911000000    -1.581000000
C    -1.157000000    -0.455000000    -0.329000000
H    -2.182000000    -0.747000000    -0.546000000
C    -0.942000000     0.640000000     0.536000000
H    -1.762000000     1.327000000     1.024000000
C     0.394000000     0.984000000     0.652000000
H     0.806000000     1.845000000     1.172000000
C     1.382000000     0.249000000     0.090000000
H     2.361000000     0.713000000     0.178000000
C     1.121000000    -0.930000000    -0.586000000
C     2.163000000    -1.790000000    -1.214000000
O     1.830000000    -2.694000000    -1.963000000
O     3.298000000    -1.634000000    -0.784000000
O    -7.006000000    -1.703000000    -0.487000000
H    -7.485000000    -1.326000000     0.251000000
H    -6.297000000    -1.081000000    -0.654000000
O    -3.719000000    -3.972000000    -0.875000000
H    -3.488000000    -3.650000000    -0.004000000
H    -4.663000000    -4.123000000    -0.832000000
O     0.320000000     2.846000000    -2.088000000
H     1.176000000     3.175000000    -1.815000000
H    -0.061000000     2.480000000    -1.290000000
O    -1.742000000    -2.230000000    -5.210000000
H    -2.121000000    -2.495000000    -4.372000000
H    -0.926000000    -1.789000000    -4.975000000
O     0.822000000    -4.069000000     1.825000000
H     0.264000000    -4.557000000     1.220000000
H     1.671000000    -4.022000000     1.384000000
O    -0.806000000     0.747000000    -3.414000000
H    -0.487000000     1.604000000    -3.134000000
H    -1.693000000     0.693000000    -3.059000000
O     7.352000000    -1.681000000    -3.948000000
H     7.417000000    -2.497000000    -4.445000000
H     6.738000000    -1.880000000    -3.241000000
O     6.445000000    -1.333000000     3.747000000
H     6.053000000    -1.481000000     2.886000000
H     7.248000000    -0.845000000     3.564000000
O     2.997000000    -2.609000000    -4.685000000
H     2.331000000    -1.931000000    -4.802000000
H     2.583000000    -3.256000000    -4.114000000
O    -2.156000000    -3.267000000    -2.813000000
H    -1.607000000    -4.049000000    -2.865000000
H    -2.712000000    -3.415000000    -2.048000000
O    -3.584000000     1.588000000     2.818000000
H    -3.520000000     2.462000000     2.432000000
H    -3.017000000     1.625000000     3.588000000
O     4.279000000    -6.618000000    -4.350000000
H     4.926000000    -6.630000000    -3.645000000
H     3.472000000    -6.318000000    -3.931000000
O     2.758000000     1.400000000     4.241000000
H     2.784000000     0.454000000     4.097000000
H     1.914000000     1.555000000     4.666000000
O    -5.571000000     0.010000000    -3.014000000
H    -5.040000000     0.501000000    -2.386000000
H    -4.934000000    -0.484000000    -3.531000000
O     5.393000000     1.719000000     2.852000000
H     4.638000000     1.511000000     3.403000000
H     6.150000000     1.439000000     3.368000000
O     4.078000000     1.003000000    -2.832000000
H     3.833000000     0.310000000    -2.219000000
H     3.473000000     1.719000000    -2.640000000
O     1.326000000    -6.254000000    -5.128000000
H     1.565000000    -7.073000000    -5.563000000
H     1.605000000    -5.569000000    -5.735000000
O    -2.491000000     2.314000000     5.236000000
H    -2.238000000     3.231000000     5.347000000
H    -2.940000000     2.089000000     6.050000000
O     3.116000000     3.760000000    -1.610000000
H     3.169000000     4.715000000    -1.650000000
H     3.616000000     3.526000000    -0.828000000
O    -4.370000000    -0.696000000     5.240000000
H    -3.527000000    -1.148000000     5.284000000
H    -4.329000000    -0.192000000     4.427000000
O     4.750000000    -1.196000000     1.385000000
H     4.174000000    -1.269000000     0.624000000
H     5.380000000    -0.517000000     1.144000000
O    -0.673000000    -5.759000000    -3.358000000
H     0.108000000    -5.849000000    -3.905000000
H    -0.995000000    -6.654000000    -3.252000000
O     4.977000000    -2.510000000    -2.507000000
H     4.414000000    -2.189000000    -1.803000000
H     4.397000000    -2.577000000    -3.266000000
O    -3.405000000     4.530000000     2.199000000
H    -4.069000000     4.952000000     2.745000000
H    -2.606000000     5.030000000     2.365000000
O     3.488000000    -4.128000000     1.311000000
H     3.810000000    -3.423000000     0.748000000
H     4.259000000    -4.668000000     1.483000000
O    -2.398000000     5.457000000    -3.349000000
H    -3.297000000     5.782000000    -3.385000000
H    -2.039000000     5.832000000    -2.545000000
O    -1.492000000     6.097000000    -0.793000000
H    -0.718000000     6.148000000    -0.232000000
H    -1.999000000     5.368000000    -0.436000000
O    -5.218000000     0.767000000     0.635000000
H    -4.697000000     0.990000000     1.407000000
H    -6.049000000     1.222000000     0.767000000
O     0.975000000     6.383000000     0.739000000
H     1.559000000     7.042000000     1.114000000
H     1.511000000     5.931000000     0.087000000
O     2.729000000     4.014000000     2.442000000
H     3.603000000     4.014000000     2.053000000
H     2.423000000     3.113000000     2.344000000
O     0.093000000     4.181000000     5.216000000
H     0.981000000     4.512000000     5.350000000
H     0.178000000     3.230000000     5.291000000
O    -3.798000000    -3.235000000     3.756000000
H    -3.216000000    -3.681000000     3.140000000
H    -4.351000000    -2.682000000     3.205000000
O     3.142000000    -1.075000000     3.684000000
H     3.570000000    -0.994000000     2.831000000
H     2.966000000    -2.012000000     3.775000000
O    -2.727000000    -2.832000000     1.404000000
H    -1.985000000    -2.614000000     1.968000000
H    -2.866000000    -2.045000000     0.877000000
O    -4.026000000     4.326000000    -0.603000000
H    -4.064000000     4.554000000     0.326000000
H    -4.375000000     5.095000000    -1.053000000
O     0.170000000    -5.246000000    -0.723000000
H    -0.459000000    -5.547000000    -1.379000000
H     0.172000000    -4.293000000    -0.812000000
O     6.556000000     0.449000000    -0.039000000
H     6.631000000     0.327000000    -0.985000000
H     6.783000000     1.368000000     0.103000000
O     0.052000000     1.235000000     5.127000000
H    -0.823000000     1.605000000     5.007000000
H    -0.047000000     0.619000000     5.853000000
O     2.290000000    -3.819000000     4.041000000
H     1.799000000    -3.742000000     3.223000000
H     3.001000000    -4.427000000     3.838000000
O    -1.762000000    -1.452000000     5.056000000
H    -1.282000000    -1.262000000     4.250000000
H    -2.166000000    -2.305000000     4.899000000
O    -0.771000000     5.395000000     2.505000000
H    -0.469000000     5.012000000     3.328000000
H     0.024000000     5.499000000     1.983000000
O    -3.969000000     1.588000000    -1.686000000
H    -4.176000000     1.223000000    -0.826000000
H    -3.635000000     2.465000000    -1.499000000
O    -0.318000000    -1.403000000     2.828000000
H     0.100000000    -0.722000000     2.300000000
H     0.297000000    -2.136000000     2.803000000
O     4.158000000    -0.143000000    -5.619000000
H     4.039000000     0.172000000    -4.723000000
H     4.118000000    -1.097000000    -5.545000000
O     4.559000000     2.930000000     0.478000000
H     4.969000000     2.424000000     1.180000000
H     5.226000000     3.564000000     0.219000000
O     0.832000000    -1.256000000    -4.043000000
H     1.058000000    -1.839000000    -3.318000000
H     0.312000000    -0.562000000    -3.639000000
O     5.456000000    -5.281000000    -1.561000000
H     5.531000000    -4.342000000    -1.732000000
H     4.515000000    -5.438000000    -1.495000000
O     2.676000000    -5.359000000    -1.844000000
H     1.843000000    -5.751000000    -1.582000000
H     2.509000000    -4.416000000    -1.840000000
