158
-3045.58475
C     0.035000000    -0.164000000    -1.432000000
H    -0.185000000    -0.295000000    -2.488000000
C    -1.031000000     0.416000000    -0.736000000
H    -1.854000000     0.836000000    -1.308000000
C    -0.932000000     0.512000000     0.671000000
H    -1.609000000     1.080000000     1.385000000
C     0.209000000    -0.044000000     1.260000000
H     0.153000000    -0.161000000     2.339000000
C     1.252000000    -0.598000000     0.562000000
H     2.156000000    -1.007000000     1.006000000
C     1.193000000    -0.648000000    -0.811000000
C     2.305000000    -1.216000000    -1.700000000
O     2.192000000    -1.095000000    -2.913000000
O     3.337000000    -1.626000000    -1.253000000
O     4.146000000    -4.167000000    -2.040000000
H     3.907000000    -3.305000000    -1.698000000
H     3.560000000    -4.299000000    -2.785000000
O     0.237000000     3.311000000    -3.264000000
H     0.306000000     2.448000000    -3.671000000
H     0.569000000     3.184000000    -2.375000000
O     2.577000000    -0.091000000     3.556000000
H     3.448000000     0.084000000     3.198000000
H     2.227000000     0.775000000     3.768000000
O     6.207000000    -5.565000000    -3.205000000
H     6.875000000    -5.040000000    -2.764000000
H     5.393000000    -5.348000000    -2.749000000
O    -2.061000000    -1.483000000    -5.190000000
H    -1.246000000    -1.822000000    -4.821000000
H    -2.749000000    -1.987000000    -4.755000000
O    -1.399000000     1.054000000    -5.222000000
H    -0.463000000     1.215000000    -5.105000000
H    -1.484000000     0.101000000    -5.196000000
O    -5.593000000     0.623000000     1.796000000
H    -4.754000000     0.294000000     2.120000000
H    -5.926000000    -0.079000000     1.237000000
O    -7.527000000     1.130000000     3.872000000
H    -8.248000000     1.174000000     3.244000000
H    -6.755000000     0.941000000     3.338000000
O    -4.445000000     3.869000000    -0.312000000
H    -4.446000000     3.014000000    -0.742000000
H    -3.534000000     4.159000000    -0.359000000
O    -0.503000000    -1.990000000     7.056000000
H     0.055000000    -1.499000000     7.659000000
H    -0.133000000    -1.816000000     6.191000000
O     1.155000000     0.759000000    -4.483000000
H     1.443000000    -0.015000000    -3.999000000
H     1.926000000     1.031000000    -4.980000000
O     0.487000000    -2.701000000    -4.514000000
H    -0.022000000    -3.439000000    -4.179000000
H     1.261000000    -2.669000000    -3.952000000
O    -3.661000000    -0.647000000     3.199000000
H    -4.391000000    -1.215000000     3.447000000
H    -2.895000000    -1.221000000     3.212000000
O     1.438000000     2.985000000    -0.946000000
H     2.107000000     3.668000000    -0.896000000
H     1.200000000     2.816000000    -0.034000000
O     3.085000000    -3.983000000     1.334000000
H     3.740000000    -3.774000000     0.667000000
H     2.866000000    -4.901000000     1.175000000
O     4.159000000     2.775000000     2.363000000
H     4.943000000     2.459000000     1.913000000
H     4.435000000     3.592000000     2.779000000
O    -0.815000000     5.500000000     4.056000000
H    -1.320000000     5.507000000     4.869000000
H    -0.253000000     6.272000000     4.117000000
O    -4.402000000     6.463000000     2.900000000
H    -5.178000000     6.853000000     3.300000000
H    -4.609000000     5.530000000     2.834000000
O     5.071000000    -2.982000000     3.519000000
H     4.264000000    -3.434000000     3.275000000
H     5.659000000    -3.680000000     3.807000000
O     6.472000000    -1.811000000    -2.304000000
H     7.087000000    -2.392000000    -2.751000000
H     6.574000000    -0.968000000    -2.746000000
O     4.213000000    -1.223000000     5.390000000
H     4.757000000    -1.454000000     4.637000000
H     3.315000000    -1.358000000     5.087000000
O     5.889000000     0.375000000    -4.155000000
H     5.219000000     0.205000000    -4.816000000
H     5.730000000     1.277000000    -3.879000000
O     6.455000000     0.642000000    -0.725000000
H     5.835000000     1.015000000    -1.352000000
H     6.051000000    -0.182000000    -0.450000000
O    -1.440000000    -2.866000000     1.975000000
H    -1.473000000    -3.799000000     2.186000000
H    -0.576000000    -2.583000000     2.276000000
O    -1.668000000     4.213000000    -0.084000000
H    -0.841000000     4.626000000    -0.334000000
H    -1.413000000     3.508000000     0.512000000
O    -1.137000000     3.317000000     2.489000000
H    -0.241000000     3.301000000     2.153000000
H    -1.163000000     4.081000000     3.066000000
O    -0.250000000    -4.963000000    -0.142000000
H    -0.447000000    -4.028000000    -0.088000000
H    -1.002000000    -5.341000000    -0.598000000
O    -2.031000000     5.111000000    -2.988000000
H    -1.353000000     4.447000000    -2.860000000
H    -2.129000000     5.521000000    -2.129000000
O     1.625000000     3.589000000     1.948000000
H     1.829000000     4.482000000     2.227000000
H     2.473000000     3.146000000     1.923000000
O     4.238000000    -1.846000000    -4.737000000
H     3.442000000    -1.673000000    -4.234000000
H     4.938000000    -1.439000000    -4.226000000
O     1.117000000    -2.577000000     3.140000000
H     1.523000000    -1.711000000     3.174000000
H     1.825000000    -3.165000000     2.879000000
O    -1.722000000    -2.760000000    -0.621000000
H    -1.704000000    -2.578000000     0.318000000
H    -1.979000000    -1.929000000    -1.022000000
O    -2.201000000     0.792000000     7.049000000
H    -2.468000000    -0.093000000     7.296000000
H    -1.806000000     0.689000000     6.183000000
O     1.726000000    -5.759000000    -1.665000000
H     2.450000000    -5.349000000    -1.191000000
H     0.997000000    -5.746000000    -1.046000000
O    -5.719000000     3.401000000     2.083000000
H    -5.486000000     3.810000000     1.249000000
H    -5.569000000     2.467000000     1.941000000
O    -4.112000000    -2.920000000    -4.122000000
H    -4.795000000    -3.496000000    -3.778000000
H    -4.304000000    -2.064000000    -3.739000000
O     4.081000000     1.537000000    -2.115000000
H     3.741000000     0.664000000    -2.309000000
H     3.313000000     2.038000000    -1.841000000
O     4.953000000    -4.397000000    -5.389000000
H     5.673000000    -4.770000000    -4.878000000
H     4.934000000    -3.474000000    -5.137000000
O    -3.451000000     2.884000000     5.762000000
H    -3.203000000     2.297000000     6.476000000
H    -2.908000000     2.607000000     5.024000000
O    -1.783000000     1.180000000     4.053000000
H    -1.630000000     1.771000000     3.315000000
H    -2.552000000     0.671000000     3.796000000
O     5.485000000    -0.213000000     2.826000000
H     6.369000000    -0.347000000     3.167000000
H     5.353000000    -0.935000000     2.212000000
O     3.197000000    -0.246000000    -7.836000000
H     3.011000000    -0.371000000    -8.767000000
H     2.576000000    -0.820000000    -7.388000000
O    -5.516000000    -0.478000000    -2.834000000
H    -6.014000000    -0.825000000    -2.094000000
H    -4.831000000     0.058000000    -2.432000000
O    -4.091000000     1.913000000    -2.486000000
H    -4.894000000     2.387000000    -2.702000000
H    -3.388000000     2.464000000    -2.831000000
O     1.428000000    -2.092000000    -7.036000000
H     1.273000000    -2.132000000    -6.093000000
H     2.052000000    -2.797000000    -7.207000000
O     5.565000000    -1.708000000     0.129000000
H     5.995000000    -2.121000000    -0.619000000
H     4.643000000    -1.655000000    -0.124000000
O    -5.692000000     6.290000000    -0.515000000
H    -6.533000000     6.301000000    -0.060000000
H    -5.505000000     5.361000000    -0.651000000
O     2.999000000     1.714000000    -5.993000000
H     2.934000000     1.083000000    -6.710000000
H     3.658000000     2.343000000    -6.286000000
