158
-3055.40045
C     0.377000000    -0.036000000    -1.358000000
H     0.498000000    -0.104000000    -2.436000000
C    -0.762000000    -0.566000000    -0.877000000
H    -1.396000000    -1.002000000    -1.646000000
C    -1.003000000    -0.516000000     0.503000000
H    -1.813000000    -0.947000000     1.016000000
C     0.020000000    -0.055000000     1.350000000
H    -0.217000000    -0.050000000     2.410000000
C     1.147000000     0.561000000     0.764000000
H     1.909000000     1.078000000     1.342000000
C     1.353000000     0.563000000    -0.608000000
C     2.616000000     1.196000000    -1.221000000
O     2.742000000     1.146000000    -2.439000000
O     3.514000000     1.577000000    -0.524000000
O     0.502000000     2.656000000    -3.090000000
H     1.200000000     2.001000000    -3.051000000
H     0.308000000     2.854000000    -2.174000000
O     6.098000000     1.041000000    -4.859000000
H     6.647000000     0.798000000    -5.604000000
H     5.341000000     0.459000000    -4.919000000
O    -1.747000000    -3.475000000    -2.543000000
H    -1.037000000    -3.870000000    -2.037000000
H    -1.325000000    -2.773000000    -3.039000000
O     5.554000000     0.421000000     3.021000000
H     6.368000000     0.116000000     3.421000000
H     5.063000000     0.810000000     3.745000000
O     0.034000000    -2.865000000     4.611000000
H     0.183000000    -2.031000000     5.057000000
H     0.636000000    -3.475000000     5.036000000
O    -0.798000000    -1.838000000    -4.397000000
H    -0.649000000    -1.970000000    -5.334000000
H     0.016000000    -2.124000000    -3.982000000
O    -4.024000000    -2.154000000     1.171000000
H    -3.267000000    -2.077000000     1.751000000
H    -4.780000000    -2.042000000     1.748000000
O    -1.211000000     2.780000000    -0.271000000
H    -2.090000000     2.732000000    -0.648000000
H    -0.988000000     1.872000000    -0.068000000
O     4.513000000     2.590000000     4.839000000
H     4.457000000     2.870000000     3.926000000
H     3.722000000     2.944000000     5.247000000
O     0.279000000     4.923000000    -4.863000000
H    -0.046000000     4.293000000    -5.506000000
H     0.554000000     4.387000000    -4.119000000
O     5.242000000    -1.918000000    -1.886000000
H     5.214000000    -1.426000000    -1.065000000
H     6.042000000    -2.440000000    -1.825000000
O     2.097000000    -0.035000000    -6.871000000
H     1.570000000    -0.827000000    -6.762000000
H     2.422000000     0.159000000    -5.993000000
O    -6.036000000    -1.073000000     2.450000000
H    -6.848000000    -1.301000000     1.997000000
H    -5.708000000    -0.304000000     1.983000000
O     2.982000000    -3.329000000    -3.668000000
H     3.922000000    -3.287000000    -3.490000000
H     2.912000000    -3.222000000    -4.616000000
O     4.345000000     2.922000000    -3.702000000
H     3.897000000     2.320000000    -3.107000000
H     5.138000000     2.455000000    -3.963000000
O    -3.038000000     0.484000000     4.168000000
H    -3.251000000    -0.433000000     3.996000000
H    -2.162000000     0.600000000     3.800000000
O    -2.552000000    -2.331000000     3.742000000
H    -2.862000000    -3.236000000     3.698000000
H    -1.653000000    -2.401000000     4.065000000
O    -5.755000000     1.155000000     1.036000000
H    -6.592000000     1.615000000     0.982000000
H    -5.530000000     0.960000000     0.126000000
O    -4.559000000     2.869000000     4.387000000
H    -4.102000000     2.042000000     4.235000000
H    -4.122000000     3.247000000     5.151000000
O    -1.362000000     2.537000000     3.077000000
H    -2.081000000     2.749000000     2.481000000
H    -0.644000000     3.105000000     2.798000000
O    -2.024000000     2.695000000    -4.383000000
H    -1.780000000     2.571000000    -5.300000000
H    -1.235000000     2.468000000    -3.892000000
O    -5.263000000     0.334000000    -1.575000000
H    -5.908000000     0.409000000    -2.279000000
H    -5.092000000    -0.606000000    -1.506000000
O    -4.239000000    -2.140000000    -1.448000000
H    -4.235000000    -2.182000000    -0.492000000
H    -3.518000000    -2.710000000    -1.716000000
O    -3.336000000    -1.958000000    -6.166000000
H    -3.774000000    -1.126000000    -6.348000000
H    -2.936000000    -1.835000000    -5.305000000
O    -4.257000000    -4.388000000    -3.387000000
H    -3.382000000    -4.090000000    -3.138000000
H    -4.458000000    -5.086000000    -2.764000000
O     4.229000000     3.727000000     2.437000000
H     4.081000000     3.285000000     1.601000000
H     4.548000000     4.596000000     2.196000000
O     2.831000000    -1.636000000     2.743000000
H     3.510000000    -2.260000000     3.000000000
H     2.615000000    -1.875000000     1.841000000
O     0.210000000     1.484000000     5.345000000
H     0.929000000     1.350000000     4.728000000
H    -0.494000000     1.859000000     4.816000000
O     3.055000000     5.223000000    -3.398000000
H     3.418000000     4.449000000    -3.827000000
H     2.515000000     4.873000000    -2.689000000
O     6.812000000     4.865000000     1.642000000
H     6.460000000     4.416000000     0.873000000
H     7.150000000     4.161000000     2.196000000
O     3.747000000    -0.160000000    -4.454000000
H     3.314000000     0.414000000    -3.822000000
H     4.133000000    -0.855000000    -3.921000000
O     2.131000000     0.685000000     3.892000000
H     2.181000000    -0.069000000     3.305000000
H     2.499000000     0.371000000     4.718000000
O     1.428000000     3.574000000     2.935000000
H     1.580000000     2.862000000     3.557000000
H     2.244000000     4.075000000     2.940000000
O     1.513000000    -2.528000000     0.341000000
H     1.342000000    -2.774000000    -0.568000000
H     1.086000000    -1.678000000     0.443000000
O     0.975000000    -3.648000000    -2.035000000
H     1.141000000    -4.512000000    -1.659000000
H     1.704000000    -3.505000000    -2.638000000
O    -3.545000000     3.426000000     1.530000000
H    -4.398000000     3.301000000     1.944000000
H    -3.571000000     2.865000000     0.754000000
O    -3.753000000     0.273000000    -4.149000000
H    -3.335000000     1.110000000    -4.351000000
H    -3.428000000     0.048000000    -3.277000000
O     5.084000000     3.630000000    -0.321000000
H     4.460000000     2.914000000    -0.433000000
H     4.816000000     4.285000000    -0.966000000
O     7.390000000    -1.526000000     0.412000000
H     7.138000000    -2.388000000     0.744000000
H     6.562000000    -1.056000000     0.316000000
O     1.040000000     4.346000000     0.375000000
H     1.050000000     3.957000000     1.250000000
H     0.332000000     3.891000000    -0.081000000
O    -2.247000000    -5.478000000     2.061000000
H    -2.345000000    -5.739000000     2.976000000
H    -1.311000000    -5.304000000     1.960000000
O     2.630000000     6.261000000    -0.448000000
H     3.059000000     6.437000000     0.389000000
H     1.946000000     5.625000000    -0.237000000
O     0.168000000    -4.157000000     2.164000000
H     0.486000000    -3.546000000     1.500000000
H     0.312000000    -3.706000000     2.995000000
O     7.299000000     2.783000000    -1.651000000
H     6.635000000     3.158000000    -1.072000000
H     6.798000000     2.345000000    -2.339000000
O    -4.044000000    -4.729000000     0.196000000
H    -4.191000000    -3.836000000     0.509000000
H    -3.331000000    -5.060000000     0.743000000
O    -3.676000000     2.663000000    -1.124000000
H    -3.675000000     3.258000000    -1.874000000
H    -4.137000000     1.884000000    -1.438000000
O    -4.652000000    -4.468000000     4.138000000
H    -5.149000000    -3.960000000     3.498000000
H    -5.312000000    -4.994000000     4.591000000
O     5.076000000    -0.423000000     0.307000000
H     5.033000000    -0.231000000     1.244000000
H     4.568000000     0.276000000    -0.105000000
