158
-3037.56707
C     0.191000000     0.003000000    -1.457000000
H     0.326000000    -0.007000000    -2.536000000
C    -0.967000000    -0.528000000    -0.842000000
H    -1.855000000    -0.840000000    -1.384000000
C    -0.982000000    -0.444000000     0.547000000
H    -1.915000000    -0.788000000     0.974000000
C     0.030000000     0.096000000     1.318000000
H    -0.044000000     0.115000000     2.402000000
C     1.096000000     0.651000000     0.596000000
H     1.932000000     0.973000000     1.211000000
C     1.227000000     0.554000000    -0.751000000
C     2.541000000     1.057000000    -1.412000000
O     2.555000000     1.148000000    -2.611000000
O     3.445000000     1.462000000    -0.701000000
O    -0.756000000     2.617000000    -4.717000000
H     0.108000000     2.876000000    -4.395000000
H    -0.586000000     1.856000000    -5.272000000
O     4.305000000     1.580000000    -4.736000000
H     4.899000000     0.829000000    -4.715000000
H     3.666000000     1.399000000    -4.046000000
O    -5.333000000     4.256000000     1.619000000
H    -5.293000000     3.652000000     0.878000000
H    -5.380000000     3.689000000     2.389000000
O     3.620000000    -0.404000000     2.761000000
H     3.875000000     0.480000000     2.495000000
H     2.814000000    -0.280000000     3.262000000
O     3.175000000    -2.748000000    -1.094000000
H     2.422000000    -2.710000000    -0.504000000
H     3.820000000    -2.162000000    -0.697000000
O    -1.559000000    -4.660000000     4.158000000
H    -2.460000000    -4.970000000     4.066000000
H    -1.606000000    -3.725000000     3.957000000
O    -1.438000000    -2.372000000    -6.728000000
H    -1.413000000    -3.008000000    -7.443000000
H    -0.521000000    -2.245000000    -6.487000000
O    -1.555000000     2.563000000    -0.716000000
H    -1.248000000     1.921000000    -0.075000000
H    -1.854000000     2.036000000    -1.457000000
O     6.263000000    -0.400000000    -4.529000000
H     6.967000000     0.179000000    -4.822000000
H     6.210000000    -1.074000000    -5.207000000
O     2.363000000    -1.554000000    -3.612000000
H     2.595000000    -0.687000000    -3.279000000
H     2.768000000    -2.164000000    -2.996000000
O     1.174000000     0.987000000    -6.066000000
H     1.529000000     0.730000000    -5.215000000
H     1.872000000     1.503000000    -6.471000000
O    -4.133000000    -2.968000000    -2.269000000
H    -3.568000000    -3.659000000    -1.924000000
H    -3.830000000    -2.836000000    -3.167000000
O    -7.017000000    -1.895000000     2.981000000
H    -7.398000000    -1.966000000     2.106000000
H    -6.508000000    -1.085000000     2.955000000
O     0.007000000    -3.467000000    -3.395000000
H     0.638000000    -2.749000000    -3.411000000
H     0.027000000    -3.824000000    -4.283000000
O     1.855000000     3.455000000    -3.672000000
H     1.417000000     3.812000000    -2.899000000
H     2.066000000     2.553000000    -3.432000000
O    -4.326000000     2.460000000     3.598000000
H    -4.224000000     1.586000000     3.220000000
H    -3.488000000     2.892000000     3.432000000
O     7.659000000     2.500000000     2.326000000
H     8.243000000     3.021000000     1.775000000
H     7.345000000     1.802000000     1.751000000
O    -3.562000000    -2.351000000     2.236000000
H    -3.495000000    -2.345000000     3.191000000
H    -3.335000000    -3.247000000     1.986000000
O    -7.325000000     1.007000000     0.698000000
H    -6.650000000     0.376000000     0.448000000
H    -7.233000000     1.091000000     1.647000000
O    -1.930000000     4.700000000     0.995000000
H    -1.674000000     4.007000000     0.386000000
H    -2.745000000     5.047000000     0.633000000
O     4.432000000     5.910000000    -2.405000000
H     4.005000000     6.501000000    -1.784000000
H     4.311000000     5.039000000    -2.029000000
O    -2.533000000     1.241000000    -3.160000000
H    -3.231000000     1.153000000    -3.809000000
H    -1.764000000     1.499000000    -3.668000000
O     6.523000000    -0.163000000    -1.997000000
H     6.418000000    -0.047000000    -2.942000000
H     5.654000000    -0.420000000    -1.690000000
O     3.956000000    -3.064000000     3.722000000
H     3.997000000    -2.235000000     3.244000000
H     3.023000000    -3.200000000     3.886000000
O    -6.236000000    -1.197000000    -1.826000000
H    -7.129000000    -1.479000000    -2.022000000
H    -5.710000000    -1.992000000    -1.910000000
O     7.496000000     4.882000000    -2.111000000
H     6.664000000     4.410000000    -2.151000000
H     7.258000000     5.764000000    -1.826000000
O     0.746000000     5.250000000     1.088000000
H    -0.185000000     5.101000000     1.255000000
H     0.973000000     5.994000000     1.646000000
O     1.276000000    -3.121000000     3.613000000
H     1.087000000    -3.028000000     2.680000000
H     0.535000000    -3.619000000     3.959000000
O     3.349000000     2.227000000     3.239000000
H     3.987000000     2.915000000     3.051000000
H     2.932000000     2.504000000     4.055000000
O     5.466000000     5.526000000     0.522000000
H     4.738000000     4.917000000     0.402000000
H     6.249000000     4.979000000     0.460000000
O     3.701000000     4.949000000    -4.858000000
H     3.868000000     5.354000000    -4.007000000
H     3.152000000     4.190000000    -4.658000000
O     1.227000000    -1.924000000    -5.950000000
H     1.671000000    -1.915000000    -5.102000000
H     1.901000000    -1.661000000    -6.576000000
O     2.048000000    -1.031000000     5.210000000
H     1.820000000    -1.776000000     4.653000000
H     1.315000000    -0.955000000     5.820000000
O    -2.286000000     2.533000000     5.989000000
H    -1.392000000     2.561000000     6.330000000
H    -2.303000000     3.204000000     5.306000000
O     1.078000000    -3.386000000     0.773000000
H     1.554000000    -4.213000000     0.697000000
H     0.237000000    -3.555000000     0.347000000
O    -1.977000000    -5.076000000    -1.987000000
H    -1.595000000    -5.831000000    -1.541000000
H    -1.224000000    -4.583000000    -2.312000000
O    -4.615000000    -0.062000000     1.774000000
H    -4.001000000     0.216000000     1.095000000
H    -4.220000000    -0.850000000     2.147000000
O    -5.267000000     2.737000000    -0.903000000
H    -4.739000000     1.940000000    -0.868000000
H    -6.037000000     2.492000000    -1.418000000
O    -3.047000000    -3.829000000    -4.986000000
H    -2.339000000    -4.056000000    -4.383000000
H    -2.604000000    -3.438000000    -5.739000000
O     3.221000000     4.100000000     0.164000000
H     3.272000000     3.148000000     0.074000000
H     2.329000000     4.264000000     0.470000000
O     7.142000000     0.561000000     0.593000000
H     7.702000000     0.394000000    -0.165000000
H     6.382000000    -0.005000000     0.459000000
O     0.270000000     4.535000000    -1.435000000
H     0.522000000     4.605000000    -0.514000000
H    -0.382000000     3.834000000    -1.452000000
O     0.043000000    -5.989000000     2.380000000
H    -0.438000000    -5.507000000     3.054000000
H    -0.637000000    -6.419000000     1.862000000
O     5.162000000     3.099000000    -2.259000000
H     4.606000000     2.909000000    -1.503000000
H     4.833000000     2.524000000    -2.949000000
O    -4.154000000     0.414000000    -0.990000000
H    -4.629000000    -0.404000000    -1.134000000
H    -3.687000000     0.568000000    -1.812000000
O     2.154000000     2.800000000     5.690000000
H     1.651000000     2.666000000     6.493000000
H     3.060000000     2.624000000     5.943000000
O    -1.973000000    -2.011000000     4.595000000
H    -1.887000000    -2.421000000     5.456000000
H    -2.041000000    -1.075000000     4.781000000
O     4.596000000    -0.941000000     0.217000000
H     4.297000000    -1.083000000     1.115000000
H     4.261000000    -0.075000000    -0.013000000
