158
-3018.18393
C     0.518000000    -0.103000000    -1.389000000
H     0.715000000    -0.150000000    -2.456000000
C    -0.816000000    -0.329000000    -0.952000000
H    -1.592000000    -0.475000000    -1.700000000
C    -1.110000000    -0.397000000     0.380000000
H    -2.183000000    -0.642000000     0.700000000
C    -0.190000000     0.005000000     1.346000000
H    -0.417000000    -0.001000000     2.409000000
C     1.145000000     0.370000000     0.906000000
H     1.821000000     0.775000000     1.655000000
C     1.495000000     0.429000000    -0.454000000
C     2.846000000     0.879000000    -0.913000000
O     3.015000000     0.869000000    -2.089000000
O     3.827000000     0.670000000    -0.245000000
O     0.822000000     2.149000000    -3.693000000
H     1.288000000     1.708000000    -2.983000000
H    -0.051000000     2.317000000    -3.339000000
O     5.707000000     1.493000000    -4.757000000
H     6.129000000     0.985000000    -5.450000000
H     4.769000000     1.371000000    -4.909000000
O    -2.093000000    -4.602000000    -3.399000000
H    -1.417000000    -4.601000000    -2.721000000
H    -1.871000000    -3.857000000    -3.959000000
O    -3.756000000     3.614000000     3.011000000
H    -3.958000000     3.041000000     2.272000000
H    -2.850000000     3.886000000     2.862000000
O     3.771000000    -0.839000000     4.186000000
H     3.805000000     0.036000000     4.571000000
H     4.124000000    -1.414000000     4.865000000
O     3.361000000    -3.886000000    -0.335000000
H     3.719000000    -3.388000000    -1.069000000
H     3.301000000    -4.784000000    -0.661000000
O    -6.398000000     1.818000000    -2.079000000
H    -5.786000000     2.547000000    -1.979000000
H    -6.570000000     1.778000000    -3.020000000
O    -0.868000000    -2.939000000    -5.286000000
H    -0.915000000    -3.342000000    -6.153000000
H    -0.001000000    -2.535000000    -5.256000000
O    -1.415000000     2.685000000     0.210000000
H    -2.304000000     2.425000000     0.451000000
H    -0.962000000     1.859000000     0.041000000
O     2.798000000     3.676000000    -4.887000000
H     3.317000000     4.090000000    -4.198000000
H     2.120000000     3.190000000    -4.418000000
O    -2.606000000     5.259000000    -0.405000000
H    -2.333000000     4.522000000     0.141000000
H    -1.792000000     5.589000000    -0.786000000
O     3.350000000    -1.409000000    -3.287000000
H     3.347000000    -0.680000000    -2.666000000
H     4.248000000    -1.739000000    -3.264000000
O    -0.028000000     1.148000000    -6.037000000
H     0.397000000     0.317000000    -5.825000000
H    -0.061000000     1.619000000    -5.205000000
O     1.579000000    -3.950000000    -3.503000000
H     2.256000000    -3.284000000    -3.625000000
H     1.322000000    -4.196000000    -4.391000000
O     3.886000000     3.861000000    -2.273000000
H     4.140000000     2.945000000    -2.160000000
H     3.306000000     4.042000000    -1.533000000
O    -4.339000000     3.616000000    -2.176000000
H    -3.943000000     4.475000000    -2.029000000
H    -4.184000000     3.437000000    -3.104000000
O    -5.086000000    -0.131000000     2.742000000
H    -5.309000000    -0.029000000     3.667000000
H    -5.892000000    -0.447000000     2.334000000
O    -3.876000000    -0.303000000     6.620000000
H    -3.184000000    -0.679000000     7.164000000
H    -3.446000000     0.406000000     6.142000000
O    -6.580000000    -0.052000000    -0.203000000
H    -5.978000000    -0.686000000    -0.592000000
H    -6.546000000     0.703000000    -0.791000000
O    -1.274000000     4.883000000     2.435000000
H    -0.672000000     5.627000000     2.466000000
H    -0.961000000     4.352000000     1.703000000
O    -1.900000000     1.575000000    -3.868000000
H    -2.688000000     1.894000000    -4.307000000
H    -2.224000000     1.146000000    -3.076000000
O     8.103000000    -0.438000000    -1.297000000
H     8.436000000    -0.769000000    -2.131000000
H     7.421000000     0.187000000    -1.542000000
O     6.700000000    -2.639000000     2.465000000
H     6.678000000    -3.580000000     2.293000000
H     6.024000000    -2.275000000     1.892000000
O    -4.633000000    -1.861000000    -2.571000000
H    -5.587000000    -1.795000000    -2.605000000
H    -4.466000000    -2.749000000    -2.255000000
O    -4.739000000    -4.531000000    -1.562000000
H    -3.908000000    -4.583000000    -2.035000000
H    -4.672000000    -5.203000000    -0.884000000
O    -5.945000000     2.397000000     4.761000000
H    -5.558000000     2.959000000     5.432000000
H    -5.232000000     2.235000000     4.143000000
O     2.413000000     3.307000000     2.660000000
H     2.469000000     2.908000000     3.528000000
H     1.879000000     4.091000000     2.791000000
O     0.945000000    -2.047000000     3.371000000
H     1.785000000    -2.357000000     3.710000000
H     1.017000000    -2.150000000     2.422000000
O     5.948000000     1.330000000     4.484000000
H     5.462000000     1.586000000     3.700000000
H     6.598000000     0.703000000     4.169000000
O     6.792000000     3.685000000     1.688000000
H     5.907000000     3.337000000     1.792000000
H     7.366000000     2.950000000     1.904000000
O     1.617000000    -1.582000000    -5.379000000
H     2.325000000    -1.275000000    -4.813000000
H     1.995000000    -2.320000000    -5.857000000
O     0.188000000    -0.374000000     5.919000000
H     0.399000000    -1.078000000     5.306000000
H     0.844000000     0.301000000     5.744000000
O    -1.704000000     1.679000000     5.408000000
H    -1.215000000     2.472000000     5.623000000
H    -1.132000000     0.962000000     5.682000000
O     0.858000000    -2.879000000     0.483000000
H     1.759000000    -3.189000000     0.390000000
H     0.788000000    -2.155000000    -0.139000000
O    -0.278000000    -4.564000000    -1.538000000
H    -0.116000000    -4.219000000    -0.660000000
H     0.193000000    -3.968000000    -2.120000000
O    -3.857000000     1.568000000     1.053000000
H    -4.160000000     0.845000000     1.602000000
H    -3.959000000     1.247000000     0.157000000
O    -6.628000000     3.007000000     1.512000000
H    -6.271000000     2.120000000     1.469000000
H    -7.574000000     2.881000000     1.577000000
O    -2.470000000    -0.717000000    -5.818000000
H    -1.883000000    -0.009000000    -5.553000000
H    -1.973000000    -1.517000000    -5.647000000
O     4.582000000     1.975000000     2.095000000
H     4.506000000     1.548000000     1.242000000
H     3.735000000     2.401000000     2.226000000
O     7.553000000     0.187000000     1.802000000
H     7.224000000     0.319000000     0.913000000
H     7.567000000    -0.764000000     1.914000000
O     1.840000000     4.498000000    -0.068000000
H     2.177000000     4.276000000     0.801000000
H     0.952000000     4.142000000    -0.079000000
O    -5.069000000    -5.639000000     1.109000000
H    -5.317000000    -5.051000000     1.823000000
H    -5.553000000    -6.446000000     1.285000000
O    -0.506000000    -4.364000000     2.517000000
H    -0.143000000    -3.923000000     1.748000000
H    -0.217000000    -3.830000000     3.257000000
O     5.751000000     1.440000000    -2.068000000
H     4.857000000     1.191000000    -1.832000000
H     5.706000000     1.636000000    -3.004000000
O    -3.781000000     0.634000000    -2.041000000
H    -4.664000000     0.996000000    -1.967000000
H    -3.892000000    -0.166000000    -2.554000000
O     2.702000000     1.692000000     5.403000000
H     1.948000000     2.245000000     5.607000000
H     3.390000000     1.998000000     5.995000000
O     4.622000000    -1.405000000     1.198000000
H     4.022000000    -1.223000000     1.920000000
H     4.613000000    -0.606000000     0.671000000
O     5.707000000    -2.517000000    -2.592000000
H     6.206000000    -3.328000000    -2.491000000
H     6.238000000    -1.853000000    -2.153000000
