158
-3024.36600
C     0.392000000    -0.118000000    -1.444000000
H     0.537000000    -0.305000000    -2.505000000
C    -0.936000000    -0.161000000    -0.900000000
H    -1.778000000    -0.177000000    -1.587000000
C    -1.150000000    -0.078000000     0.454000000
H    -2.165000000     0.003000000     0.829000000
C    -0.050000000     0.095000000     1.315000000
H    -0.287000000     0.264000000     2.362000000
C     1.202000000     0.003000000     0.819000000
H     2.082000000     0.105000000     1.449000000
C     1.427000000     0.018000000    -0.553000000
C     2.842000000     0.114000000    -1.050000000
O     3.062000000     0.530000000    -2.224000000
O     3.758000000    -0.075000000    -0.282000000
O     0.167000000     2.932000000    -2.929000000
H     0.560000000     3.641000000    -3.438000000
H     0.913000000     2.467000000    -2.551000000
O     4.247000000     4.794000000    -3.653000000
H     4.749000000     4.652000000    -2.851000000
H     3.879000000     3.934000000    -3.861000000
O     2.496000000    -0.484000000     6.446000000
H     2.998000000    -0.496000000     5.631000000
H     1.596000000    -0.311000000     6.171000000
O    -0.856000000    -2.126000000    -4.122000000
H    -0.879000000    -2.839000000    -4.760000000
H    -1.146000000    -2.528000000    -3.303000000
O     7.885000000    -0.757000000    -3.958000000
H     7.380000000    -0.034000000    -4.329000000
H     8.519000000    -0.982000000    -4.639000000
O    -2.137000000     2.418000000    -4.603000000
H    -1.513000000     2.666000000    -3.921000000
H    -1.843000000     2.892000000    -5.381000000
O    -2.535000000    -0.143000000     4.295000000
H    -2.285000000    -1.065000000     4.242000000
H    -1.820000000     0.272000000     4.777000000
O     0.767000000     1.089000000    -5.554000000
H    -0.095000000     1.073000000    -5.137000000
H     1.209000000     0.309000000    -5.220000000
O    -4.366000000     1.634000000     3.521000000
H    -5.226000000     1.233000000     3.399000000
H    -3.779000000     0.896000000     3.687000000
O    -1.415000000     5.328000000    -0.193000000
H    -1.663000000     4.528000000    -0.655000000
H    -1.679000000     6.036000000    -0.781000000
O     6.044000000     1.425000000    -4.968000000
H     5.099000000     1.541000000    -4.875000000
H     6.337000000     2.208000000    -5.434000000
O     3.096000000     2.288000000    -4.287000000
H     3.004000000     1.702000000    -3.536000000
H     2.333000000     2.098000000    -4.834000000
O    -6.972000000     1.408000000     3.197000000
H    -7.846000000     1.055000000     3.367000000
H    -7.065000000     2.352000000     3.329000000
O    -2.758000000    -3.309000000     4.297000000
H    -2.307000000    -3.727000000     3.564000000
H    -2.237000000    -3.544000000     5.065000000
O     4.737000000     1.092000000     4.284000000
H     5.393000000     1.633000000     4.724000000
H     5.199000000     0.282000000     4.069000000
O    -5.672000000     0.884000000     6.474000000
H    -5.093000000     0.184000000     6.774000000
H    -5.243000000     1.232000000     5.692000000
O     6.822000000     2.182000000     1.479000000
H     7.005000000     1.648000000     0.706000000
H     5.902000000     2.008000000     1.678000000
O     1.006000000     4.575000000     3.539000000
H     1.080000000     4.766000000     4.474000000
H     0.167000000     4.959000000     3.282000000
O    -2.109000000    -2.755000000     0.288000000
H    -2.499000000    -3.016000000    -0.546000000
H    -1.650000000    -1.938000000     0.093000000
O     5.959000000     1.040000000    -1.823000000
H     5.688000000     0.879000000    -2.727000000
H     5.353000000     0.519000000    -1.295000000
O     6.494000000    -0.904000000     3.221000000
H     5.876000000    -1.195000000     2.550000000
H     6.613000000    -1.668000000     3.785000000
O    -6.145000000    -1.822000000    -2.091000000
H    -5.590000000    -1.529000000    -1.369000000
H    -6.167000000    -1.079000000    -2.694000000
O    -5.776000000     3.416000000    -2.509000000
H    -4.979000000     3.943000000    -2.456000000
H    -5.939000000     3.322000000    -3.447000000
O    -5.349000000    -1.544000000    -5.717000000
H    -4.537000000    -1.105000000    -5.466000000
H    -5.849000000    -0.874000000    -6.183000000
O    -2.784000000    -0.235000000    -5.246000000
H    -2.695000000     0.682000000    -4.986000000
H    -1.981000000    -0.651000000    -4.934000000
O     1.226000000     3.533000000     1.034000000
H     1.261000000     3.980000000     1.880000000
H     0.361000000     3.748000000     0.686000000
O     2.319000000     2.074000000     4.407000000
H     3.206000000     1.743000000     4.272000000
H     2.186000000     2.701000000     3.696000000
O     1.761000000    -3.464000000     0.965000000
H     2.099000000    -2.589000000     0.771000000
H     2.112000000    -4.016000000     0.267000000
O     3.194000000    -1.199000000    -4.560000000
H     3.197000000    -0.645000000    -3.779000000
H     3.348000000    -2.083000000    -4.227000000
O    -2.754000000     3.483000000     4.867000000
H    -3.401000000     3.215000000     4.214000000
H    -1.915000000     3.426000000     4.410000000
O     3.252000000    -3.206000000     3.884000000
H     3.581000000    -2.915000000     3.033000000
H     2.473000000    -2.671000000     4.034000000
O    -6.929000000    -4.161000000    -1.189000000
H    -6.603000000    -3.275000000    -1.346000000
H    -7.420000000    -4.095000000    -0.370000000
O     1.238000000    -5.019000000    -1.414000000
H     0.625000000    -4.337000000    -1.691000000
H     0.686000000    -5.683000000    -1.000000000
O    -4.877000000     3.758000000     1.593000000
H    -4.916000000     3.141000000     2.323000000
H    -4.884000000     3.206000000     0.811000000
O    -5.702000000    -0.767000000     0.452000000
H    -6.647000000    -0.922000000     0.449000000
H    -5.424000000    -1.002000000     1.337000000
O    -2.534000000    -3.376000000    -2.317000000
H    -2.267000000    -4.251000000    -2.599000000
H    -3.401000000    -3.254000000    -2.704000000
O     3.550000000     2.409000000     0.553000000
H     3.710000000     1.540000000     0.187000000
H     2.597000000     2.504000000     0.536000000
O     4.674000000     4.767000000     0.867000000
H     4.799000000     4.914000000     1.805000000
H     4.174000000     3.952000000     0.817000000
O    -0.872000000    -4.163000000     1.971000000
H    -1.251000000    -3.588000000     1.306000000
H     0.030000000    -3.856000000     2.066000000
O    -0.197000000     0.961000000     5.742000000
H     0.450000000     1.490000000     5.275000000
H    -0.333000000     1.424000000     6.569000000
O     5.831000000     3.796000000    -1.555000000
H     5.664000000     2.886000000    -1.799000000
H     5.412000000     3.896000000    -0.700000000
O    -4.530000000    -1.680000000     2.699000000
H    -4.670000000    -1.492000000     3.627000000
H    -3.856000000    -2.360000000     2.692000000
O    -0.230000000    -3.815000000    -6.022000000
H     0.593000000    -3.974000000    -5.559000000
H    -0.631000000    -4.680000000    -6.099000000
O    -4.766000000     1.495000000    -0.579000000
H    -5.368000000     0.826000000    -0.253000000
H    -5.201000000     1.850000000    -1.354000000
O    -2.405000000     2.939000000    -1.061000000
H    -3.150000000     2.510000000    -0.640000000
H    -1.954000000     2.233000000    -1.525000000
O     5.064000000    -2.080000000     0.931000000
H     5.210000000    -2.630000000     0.161000000
H     4.623000000    -1.302000000     0.589000000
O    -3.647000000     4.958000000    -2.832000000
H    -3.210000000     4.193000000    -2.459000000
H    -3.087000000     5.696000000    -2.591000000
O     5.046000000    -0.810000000    -6.692000000
H     4.477000000    -0.954000000    -5.936000000
H     4.590000000    -0.147000000    -7.212000000
