158
-3037.72771
C    -1.203000000     0.783000000    -0.162000000
H    -2.121000000     1.366000000    -0.163000000
C    -1.061000000    -0.309000000     0.621000000
H    -1.844000000    -0.761000000     1.226000000
C     0.151000000    -0.920000000     0.812000000
H     0.196000000    -1.793000000     1.452000000
C     1.214000000    -0.423000000     0.057000000
H     2.206000000    -0.866000000     0.086000000
C     1.038000000     0.576000000    -0.909000000
H     1.927000000     0.841000000    -1.475000000
C    -0.176000000     1.250000000    -1.002000000
C    -0.323000000     2.367000000    -1.989000000
O    -1.193000000     3.214000000    -1.855000000
O     0.433000000     2.476000000    -2.944000000
O     5.395000000    -1.564000000     2.774000000
H     6.187000000    -1.664000000     2.245000000
H     4.800000000    -2.237000000     2.444000000
O    -1.878000000     6.085000000    -5.466000000
H    -1.620000000     6.096000000    -4.544000000
H    -2.082000000     6.998000000    -5.669000000
O    -4.166000000     7.231000000    -1.124000000
H    -3.391000000     7.545000000    -1.590000000
H    -4.059000000     6.280000000    -1.094000000
O     6.322000000    -3.082000000    -1.315000000
H     5.909000000    -2.686000000    -2.083000000
H     6.083000000    -4.007000000    -1.365000000
O    -4.628000000    -1.014000000     4.595000000
H    -5.290000000    -1.224000000     5.253000000
H    -4.405000000    -1.858000000     4.202000000
O    -3.712000000     2.302000000     2.625000000
H    -3.717000000     3.207000000     2.935000000
H    -2.870000000     2.206000000     2.180000000
O     2.020000000     0.633000000    -4.365000000
H     2.945000000     0.776000000    -4.163000000
H     1.576000000     1.403000000    -4.009000000
O     3.408000000    -3.924000000    -0.327000000
H     2.668000000    -3.635000000    -0.861000000
H     4.149000000    -3.941000000    -0.933000000
O     5.211000000     0.703000000    -4.321000000
H     5.242000000     1.074000000    -5.203000000
H     5.786000000     1.267000000    -3.804000000
O    -3.144000000    -4.053000000    -2.355000000
H    -3.788000000    -3.782000000    -1.701000000
H    -2.418000000    -3.438000000    -2.245000000
O    -5.912000000     3.520000000     0.913000000
H    -5.577000000     3.176000000     1.741000000
H    -6.702000000     4.004000000     1.156000000
O    -5.908000000     0.998000000     3.464000000
H    -5.486000000     0.164000000     3.671000000
H    -5.198000000     1.551000000     3.139000000
O     1.768000000    -6.801000000    -0.260000000
H     2.017000000    -6.288000000    -1.029000000
H     0.878000000    -6.512000000    -0.058000000
O     0.618000000     2.140000000     1.966000000
H     0.963000000     1.487000000     2.575000000
H     0.563000000     1.680000000     1.128000000
O    -0.921000000    -6.432000000     4.780000000
H     0.006000000    -6.336000000     4.561000000
H    -0.975000000    -6.190000000     5.704000000
O     1.433000000    -1.601000000    -6.171000000
H     2.316000000    -1.970000000    -6.175000000
H     1.550000000    -0.704000000    -5.857000000
O    -0.189000000     2.527000000    -8.198000000
H     0.014000000     2.978000000    -7.378000000
H    -0.598000000     3.197000000    -8.746000000
O     3.899000000     0.649000000     2.077000000
H     3.118000000     0.503000000     2.611000000
H     4.515000000    -0.025000000     2.365000000
O     0.669000000    -1.556000000    -3.456000000
H     0.885000000    -0.664000000    -3.728000000
H     1.518000000    -1.975000000    -3.315000000
O    -3.764000000     2.649000000    -3.034000000
H    -3.624000000     2.764000000    -3.975000000
H    -2.896000000     2.766000000    -2.648000000
O     1.324000000    -0.189000000     3.672000000
H     1.292000000    -1.138000000     3.556000000
H     1.460000000    -0.066000000     4.612000000
O     0.091000000    -3.397000000     6.523000000
H    -0.744000000    -3.866000000     6.517000000
H    -0.148000000    -2.486000000     6.695000000
O     5.062000000    -2.134000000    -3.681000000
H     4.675000000    -2.202000000    -4.554000000
H     4.926000000    -1.220000000    -3.430000000
O    -6.486000000     3.657000000    -3.077000000
H    -5.616000000     3.412000000    -3.392000000
H    -7.048000000     2.926000000    -3.334000000
O    -2.937000000     0.891000000     5.780000000
H    -3.692000000     0.866000000     6.368000000
H    -3.224000000     0.414000000     5.001000000
O    -1.304000000    -2.186000000    -1.697000000
H    -0.603000000    -1.933000000    -2.297000000
H    -0.928000000    -2.065000000    -0.825000000
O     2.533000000     4.188000000    -3.454000000
H     2.296000000     4.701000000    -4.227000000
H     1.788000000     3.603000000    -3.317000000
O    -6.470000000     1.298000000    -0.618000000
H    -6.020000000     2.026000000    -0.188000000
H    -7.165000000     1.053000000    -0.008000000
O     4.876000000     3.215000000    -2.250000000
H     4.453000000     2.861000000    -1.467000000
H     4.314000000     3.942000000    -2.518000000
O    -0.075000000    -5.464000000    -3.044000000
H    -0.232000000    -4.945000000    -3.833000000
H    -0.726000000    -5.147000000    -2.417000000
O    -1.045000000     5.825000000    -2.813000000
H    -1.089000000     4.981000000    -2.363000000
H    -0.205000000     6.196000000    -2.544000000
O     1.333000000    -3.882000000     4.169000000
H     1.247000000    -4.835000000     4.183000000
H     0.923000000    -3.592000000     4.984000000
O    -4.301000000     4.439000000    -1.081000000
H    -4.613000000     3.942000000    -1.837000000
H    -4.865000000     4.160000000    -0.361000000
O    -0.740000000     3.118000000    -5.420000000
H    -1.126000000     3.981000000    -5.274000000
H    -0.145000000     2.994000000    -4.680000000
O    -0.516000000    -5.613000000     0.738000000
H    -1.066000000    -5.071000000     1.303000000
H    -0.775000000    -6.512000000     0.943000000
O    -2.248000000     4.285000000     0.718000000
H    -1.568000000     3.826000000     0.224000000
H    -2.993000000     4.326000000     0.118000000
O    -0.561000000    -0.726000000     6.398000000
H     0.370000000    -0.507000000     6.398000000
H    -1.000000000     0.089000000     6.155000000
O     3.679000000     2.297000000    -0.134000000
H     3.727000000     1.521000000     0.425000000
H     2.996000000     2.837000000     0.264000000
O     3.104000000    -2.750000000     2.063000000
H     3.058000000    -3.086000000     1.168000000
H     2.584000000    -3.368000000     2.578000000
O    -1.512000000     6.597000000     1.776000000
H    -1.572000000     5.657000000     1.602000000
H    -0.663000000     6.707000000     2.204000000
O     5.646000000     3.937000000     0.975000000
H     5.092000000     3.269000000     0.573000000
H     5.030000000     4.554000000     1.369000000
O     2.498000000    -3.911000000    -2.779000000
H     1.831000000    -4.289000000    -3.352000000
H     3.317000000    -4.018000000    -3.262000000
O    -4.545000000    -3.189000000     2.792000000
H    -4.808000000    -3.162000000     1.872000000
H    -3.799000000    -3.789000000     2.810000000
O    -2.953000000    -6.016000000     2.657000000
H    -2.782000000    -6.895000000     2.320000000
H    -2.437000000    -5.962000000     3.461000000
O     3.999000000    -6.074000000     1.116000000
H     3.733000000    -5.260000000     0.688000000
H     3.216000000    -6.624000000     1.093000000
O    -2.202000000     0.543000000    -6.034000000
H    -1.329000000     0.934000000    -5.988000000
H    -2.300000000     0.076000000    -5.205000000
O    -5.172000000    -2.735000000    -0.815000000
H    -5.931000000    -3.166000000    -1.207000000
H    -4.996000000    -1.990000000    -1.390000000
O    -5.262000000    -0.153000000    -2.423000000
H    -5.804000000     0.348000000    -1.812000000
H    -4.575000000     0.458000000    -2.689000000
