158
-3029.00789
C    -1.140000000     0.910000000    -0.185000000
H    -2.003000000     1.567000000    -0.117000000
C    -1.068000000    -0.023000000     0.809000000
H    -1.840000000    -0.155000000     1.563000000
C     0.001000000    -0.879000000     0.836000000
H     0.082000000    -1.636000000     1.673000000
C     0.980000000    -0.798000000    -0.169000000
H     1.809000000    -1.495000000    -0.080000000
C     0.954000000     0.188000000    -1.112000000
H     1.681000000     0.248000000    -1.918000000
C    -0.125000000     1.067000000    -1.166000000
C    -0.138000000     2.207000000    -2.165000000
O    -1.200000000     2.792000000    -2.337000000
O     0.913000000     2.458000000    -2.796000000
O    -0.744000000     4.347000000    -5.944000000
H    -1.333000000     4.505000000    -5.206000000
H    -1.166000000     4.782000000    -6.685000000
O     5.748000000    -2.957000000    -0.618000000
H     6.234000000    -2.363000000    -1.190000000
H     6.245000000    -3.774000000    -0.643000000
O    -3.397000000    -3.375000000     3.491000000
H    -2.880000000    -4.181000000     3.471000000
H    -3.353000000    -3.041000000     2.595000000
O    -2.127000000     2.166000000     3.301000000
H    -2.390000000     2.798000000     3.970000000
H    -2.701000000     1.414000000     3.443000000
O     2.050000000     1.018000000    -4.582000000
H     1.647000000     1.462000000    -3.836000000
H     2.822000000     1.546000000    -4.786000000
O     0.426000000    -4.269000000     5.503000000
H    -0.224000000    -4.604000000     6.120000000
H    -0.077000000    -3.726000000     4.896000000
O     3.889000000    -3.704000000    -2.703000000
H     3.903000000    -2.926000000    -3.262000000
H     4.401000000    -3.455000000    -1.934000000
O     4.561000000     1.928000000    -5.171000000
H     5.264000000     1.932000000    -5.820000000
H     5.006000000     2.064000000    -4.335000000
O    -1.585000000    -2.379000000    -1.033000000
H    -1.998000000    -2.761000000    -0.258000000
H    -1.280000000    -1.520000000    -0.742000000
O    -2.099000000     4.571000000     1.258000000
H    -2.079000000     3.783000000     1.801000000
H    -1.180000000     4.825000000     1.171000000
O     0.487000000    -6.821000000     2.826000000
H     0.322000000    -7.308000000     2.019000000
H     0.792000000    -7.483000000     3.447000000
O     1.102000000     1.560000000     6.686000000
H     1.928000000     1.153000000     6.426000000
H     0.483000000     0.832000000     6.743000000
O     1.282000000     2.021000000     1.948000000
H     2.085000000     1.514000000     1.830000000
H     0.578000000     1.400000000     1.761000000
O     0.282000000     1.677000000    -6.445000000
H     0.889000000     1.753000000    -5.710000000
H    -0.304000000     2.428000000    -6.352000000
O     3.470000000     0.735000000     1.156000000
H     4.056000000     0.137000000     1.620000000
H     2.992000000     0.175000000     0.544000000
O     4.028000000    -1.138000000    -4.074000000
H     3.101000000    -1.045000000    -4.293000000
H     4.413000000    -0.290000000    -4.295000000
O     5.445000000     4.754000000    -3.545000000
H     6.164000000     4.995000000    -2.961000000
H     4.833000000     4.273000000    -2.987000000
O    -3.517000000     3.756000000    -1.374000000
H    -2.754000000     3.263000000    -1.677000000
H    -3.308000000     3.988000000    -0.469000000
O     2.430000000    -2.281000000     3.925000000
H     2.929000000    -2.888000000     4.472000000
H     1.522000000    -2.568000000     4.016000000
O     1.371000000    -2.042000000     7.338000000
H     0.444000000    -1.804000000     7.326000000
H     1.418000000    -2.853000000     6.832000000
O    -4.829000000     3.519000000    -3.845000000
H    -4.146000000     2.910000000    -4.124000000
H    -4.647000000     3.676000000    -2.918000000
O    -1.906000000    -1.496000000    -3.745000000
H    -1.969000000    -1.891000000    -2.876000000
H    -1.396000000    -2.124000000    -4.257000000
O     2.927000000     6.404000000    -4.031000000
H     2.525000000     5.628000000    -4.422000000
H     3.869000000     6.254000000    -4.112000000
O    -5.036000000     1.422000000     0.804000000
H    -4.843000000     1.362000000     1.740000000
H    -5.295000000     0.535000000     0.556000000
O     3.557000000     3.227000000    -2.092000000
H     3.200000000     3.555000000    -1.267000000
H     2.903000000     3.468000000    -2.749000000
O    -0.182000000    -4.354000000    -2.159000000
H     0.332000000    -3.832000000    -2.774000000
H    -0.757000000    -3.720000000    -1.729000000
O    -0.444000000     5.202000000    -2.090000000
H    -0.804000000     4.315000000    -2.076000000
H     0.472000000     5.093000000    -1.832000000
O     2.872000000    -5.532000000     4.754000000
H     1.979000000    -5.268000000     4.973000000
H     3.416000000    -5.118000000     5.425000000
O     5.044000000     1.323000000    -0.954000000
H     4.445000000     1.907000000    -1.419000000
H     4.755000000     1.361000000    -0.042000000
O    -7.011000000     2.401000000    -0.610000000
H    -7.541000000     1.608000000    -0.687000000
H    -6.266000000     2.140000000    -0.069000000
O    -1.480000000    -0.059000000     6.200000000
H    -1.622000000    -0.569000000     6.997000000
H    -2.128000000     0.644000000     6.246000000
O     1.600000000     4.355000000    -4.635000000
H     0.890000000     4.445000000    -5.270000000
H     1.350000000     3.601000000    -4.101000000
O     0.526000000     3.478000000     4.319000000
H     0.647000000     3.192000000     3.414000000
H     0.934000000     2.790000000     4.845000000
O     0.578000000     5.383000000     0.812000000
H     0.886000000     5.506000000     1.710000000
H     1.245000000     5.807000000     0.271000000
O    -1.842000000     7.517000000    -1.755000000
H    -1.981000000     7.315000000    -0.830000000
H    -1.255000000     6.828000000    -2.066000000
O    -1.307000000    -2.182000000     4.369000000
H    -2.158000000    -2.494000000     4.062000000
H    -1.517000000    -1.524000000     5.031000000
O     3.163000000     3.539000000     0.706000000
H     3.464000000     2.637000000     0.816000000
H     2.378000000     3.598000000     1.251000000
O    -1.998000000    -5.914000000     4.148000000
H    -2.118000000    -6.389000000     4.970000000
H    -1.116000000    -6.149000000     3.862000000
O     4.532000000    -1.792000000     1.586000000
H     5.006000000    -2.167000000     0.843000000
H     4.391000000    -2.532000000     2.177000000
O     1.996000000     6.550000000    -1.405000000
H     2.381000000     7.298000000    -0.948000000
H     2.331000000     6.617000000    -2.299000000
O     3.537000000     0.191000000     4.045000000
H     3.160000000    -0.615000000     3.693000000
H     3.657000000     0.012000000     4.978000000
O     6.450000000     0.890000000    -3.271000000
H     7.157000000     1.524000000    -3.148000000
H     5.877000000     1.019000000    -2.515000000
O    -2.973000000    -5.205000000     0.137000000
H    -3.244000000    -5.840000000    -0.526000000
H    -2.699000000    -5.740000000     0.882000000
O     3.976000000    -4.456000000     2.157000000
H     3.193000000    -4.605000000     2.687000000
H     3.699000000    -4.649000000     1.261000000
O    -2.544000000     1.223000000    -4.138000000
H    -1.915000000     1.803000000    -3.709000000
H    -2.115000000     0.368000000    -4.146000000
O    -3.962000000    -2.817000000     0.952000000
H    -4.617000000    -2.350000000     0.433000000
H    -3.739000000    -3.583000000     0.424000000
O    -3.093000000     2.157000000    -6.776000000
H    -2.904000000     1.658000000    -5.981000000
H    -2.930000000     1.540000000    -7.489000000
O    -4.758000000     0.873000000    -2.429000000
H    -4.849000000     1.770000000    -2.108000000
H    -3.890000000     0.850000000    -2.832000000
