158
-3042.26895
C     0.573000000    -0.661000000    -1.162000000
H     0.911000000    -1.377000000    -1.907000000
C    -0.387000000    -1.195000000    -0.326000000
H    -0.774000000    -2.196000000    -0.498000000
C    -0.901000000    -0.456000000     0.704000000
H    -1.545000000    -0.962000000     1.414000000
C    -0.373000000     0.828000000     0.999000000
H    -0.742000000     1.495000000     1.773000000
C     0.570000000     1.370000000     0.179000000
H     0.891000000     2.382000000     0.412000000
C     1.117000000     0.615000000    -0.906000000
C     2.265000000     1.127000000    -1.794000000
O     2.735000000     0.453000000    -2.689000000
O     2.631000000     2.272000000    -1.673000000
O    -5.647000000    -2.553000000    -1.443000000
H    -6.480000000    -2.373000000    -1.880000000
H    -4.985000000    -2.397000000    -2.116000000
O     5.893000000     1.474000000    -5.816000000
H     6.230000000     0.636000000    -6.133000000
H     5.143000000     1.659000000    -6.381000000
O     5.221000000     3.191000000    -1.580000000
H     5.517000000     3.293000000    -2.484000000
H     4.396000000     2.710000000    -1.650000000
O     6.356000000     1.843000000     1.813000000
H     5.939000000     2.698000000     1.710000000
H     5.822000000     1.251000000     1.283000000
O     2.284000000    -4.108000000    -0.065000000
H     1.994000000    -3.283000000     0.324000000
H     2.106000000    -4.009000000    -1.000000000
O    -6.200000000    -3.511000000     1.263000000
H    -5.740000000    -3.266000000     0.460000000
H    -6.114000000    -2.746000000     1.831000000
O     0.525000000     2.677000000     6.965000000
H     0.550000000     2.367000000     6.059000000
H     1.392000000     2.468000000     7.313000000
O    -4.002000000     2.584000000     0.104000000
H    -3.226000000     2.716000000    -0.442000000
H    -4.540000000     1.965000000    -0.389000000
O    -1.152000000     4.795000000    -0.366000000
H    -1.546000000     4.073000000    -0.856000000
H    -0.251000000     4.837000000    -0.685000000
O    -1.203000000     3.911000000    -4.322000000
H    -1.555000000     3.896000000    -5.212000000
H    -0.414000000     4.450000000    -4.386000000
O     2.568000000    -1.469000000    -7.758000000
H     3.125000000    -2.222000000    -7.559000000
H     2.849000000    -0.794000000    -7.140000000
O    -3.512000000    -0.485000000     5.717000000
H    -2.850000000     0.149000000     5.440000000
H    -4.196000000     0.046000000     6.125000000
O    -0.741000000    -0.739000000    -4.167000000
H    -1.060000000    -1.589000000    -4.469000000
H    -0.497000000    -0.886000000    -3.253000000
O     0.712000000    -3.833000000    -5.311000000
H     1.306000000    -4.437000000    -5.757000000
H     1.226000000    -3.489000000    -4.580000000
O     2.062000000     0.519000000    -5.262000000
H     1.133000000     0.434000000    -5.048000000
H     2.472000000     0.792000000    -4.441000000
O    -1.872000000     2.602000000    -1.851000000
H    -1.421000000     1.760000000    -1.801000000
H    -1.654000000     2.939000000    -2.720000000
O    -1.724000000     3.172000000     4.193000000
H    -0.918000000     2.660000000     4.120000000
H    -1.529000000     3.832000000     4.858000000
O     2.447000000    -1.696000000     1.412000000
H     2.609000000    -1.163000000     2.190000000
H     1.559000000    -1.459000000     1.141000000
O    -0.764000000     5.229000000     2.324000000
H    -0.926000000     4.964000000     1.418000000
H    -1.183000000     4.549000000     2.851000000
O     6.191000000     4.397000000     0.735000000
H     7.104000000     4.493000000     0.465000000
H     5.732000000     4.129000000    -0.061000000
O    -1.879000000    -3.491000000    -3.886000000
H    -1.368000000    -3.847000000    -4.613000000
H    -2.620000000    -4.090000000    -3.798000000
O     3.323000000     3.258000000    -3.886000000
H     2.507000000     3.737000000    -4.029000000
H     3.208000000     2.837000000    -3.035000000
O    -2.481000000    -4.997000000    -1.038000000
H    -2.478000000    -4.671000000    -0.138000000
H    -1.556000000    -5.105000000    -1.256000000
O     2.705000000     3.550000000     1.422000000
H     2.554000000     4.493000000     1.476000000
H     3.640000000     3.467000000     1.234000000
O    -3.715000000    -5.901000000    -3.375000000
H    -4.159000000    -6.671000000    -3.019000000
H    -3.255000000    -5.523000000    -2.627000000
O     3.474000000     1.519000000    -7.373000000
H     3.035000000     1.149000000    -6.607000000
H     2.929000000     1.253000000    -8.113000000
O    -0.145000000    -3.559000000     6.822000000
H     0.120000000    -2.966000000     7.526000000
H    -0.219000000    -2.997000000     6.051000000
O     3.054000000     1.281000000     3.073000000
H     3.459000000     2.035000000     3.504000000
H     2.700000000     1.634000000     2.257000000
O     1.423000000     4.699000000    -1.182000000
H     1.977000000     3.919000000    -1.203000000
H     1.956000000     5.359000000    -0.738000000
O    -5.245000000     1.981000000     2.718000000
H    -4.442000000     1.991000000     2.198000000
H    -4.950000000     2.118000000     3.618000000
O    -6.165000000    -1.202000000     3.087000000
H    -7.002000000    -0.940000000     3.469000000
H    -5.863000000    -0.426000000     2.616000000
O     4.154000000     6.409000000    -3.083000000
H     3.697000000     7.191000000    -2.775000000
H     4.172000000     5.827000000    -2.324000000
O     6.585000000    -2.588000000    -3.656000000
H     6.733000000    -2.515000000    -2.713000000
H     6.023000000    -1.843000000    -3.868000000
O    -1.234000000    -3.301000000     3.633000000
H    -1.120000000    -4.241000000     3.770000000
H    -2.139000000    -3.129000000     3.894000000
O    -3.791000000    -2.586000000     4.253000000
H    -3.589000000    -1.806000000     4.770000000
H    -4.694000000    -2.455000000     3.964000000
O     3.264000000    -3.032000000    -3.750000000
H     3.156000000    -2.097000000    -3.922000000
H     4.133000000    -3.105000000    -3.356000000
O     5.916000000     3.765000000    -4.358000000
H     6.167000000     2.943000000    -4.781000000
H     4.967000000     3.699000000    -4.250000000
O     0.510000000     1.565000000     4.501000000
H     0.533000000     0.611000000     4.574000000
H     1.240000000     1.778000000     3.921000000
O    -5.805000000     0.583000000    -1.018000000
H    -5.770000000    -0.372000000    -0.970000000
H    -6.481000000     0.830000000    -0.386000000
O     5.111000000    -0.109000000     0.061000000
H     4.298000000    -0.108000000    -0.445000000
H     5.804000000    -0.136000000    -0.599000000
O     2.798000000     6.612000000    -0.058000000
H     1.930000000     6.988000000     0.094000000
H     3.348000000     7.363000000    -0.281000000
O     2.175000000    -6.288000000    -2.633000000
H     2.853000000    -6.957000000    -2.735000000
H     2.470000000    -5.758000000    -1.893000000
O     0.374000000    -4.244000000    -2.173000000
H    -0.346000000    -3.880000000    -2.688000000
H     0.559000000    -5.088000000    -2.584000000
O     5.008000000    -0.365000000    -3.699000000
H     4.135000000    -0.058000000    -3.452000000
H     5.301000000     0.259000000    -4.363000000
O     0.395000000    -1.366000000     4.957000000
H    -0.149000000    -1.932000000     4.409000000
H     1.284000000    -1.498000000     4.628000000
O     0.366000000     1.674000000    -7.353000000
H    -0.221000000     1.231000000    -7.965000000
H     0.676000000     0.979000000    -6.772000000
O    -2.827000000    -4.213000000     1.607000000
H    -2.235000000    -3.804000000     2.238000000
H    -3.700000000    -4.082000000     1.977000000
O    -2.428000000     1.154000000    -5.368000000
H    -2.297000000     0.958000000    -6.296000000
H    -1.683000000     0.743000000    -4.929000000
