158
-3048.26543
C     0.891000000    -0.763000000    -0.800000000
H     1.475000000    -1.424000000    -1.435000000
C    -0.515000000    -0.994000000    -0.678000000
H    -0.902000000    -1.842000000    -1.238000000
C    -1.224000000    -0.209000000     0.229000000
H    -2.173000000    -0.549000000     0.462000000
C    -0.590000000     0.869000000     0.884000000
H    -1.108000000     1.379000000     1.692000000
C     0.767000000     1.137000000     0.649000000
H     1.330000000     1.885000000     1.202000000
C     1.493000000     0.320000000    -0.231000000
C     2.900000000     0.621000000    -0.679000000
O     3.340000000     0.014000000    -1.656000000
O     3.538000000     1.580000000    -0.224000000
O    -3.725000000    -3.285000000    -0.191000000
H    -4.352000000    -4.008000000    -0.155000000
H    -3.607000000    -3.117000000    -1.126000000
O    -2.822000000     3.366000000     0.234000000
H    -2.092000000     3.618000000     0.800000000
H    -2.518000000     3.562000000    -0.652000000
O     3.377000000    -1.051000000    -6.801000000
H     4.273000000    -1.350000000    -6.956000000
H     3.414000000    -0.613000000    -5.950000000
O    -5.623000000    -0.822000000    -1.698000000
H    -5.432000000     0.010000000    -2.132000000
H    -4.969000000    -1.429000000    -2.046000000
O     5.958000000    -0.132000000    -0.767000000
H     5.115000000     0.198000000    -1.076000000
H     6.046000000     0.225000000     0.117000000
O     6.920000000    -0.322000000    -3.319000000
H     7.834000000    -0.048000000    -3.250000000
H     6.581000000    -0.255000000    -2.427000000
O     6.197000000    -0.250000000     2.208000000
H     6.895000000     0.000000000     2.814000000
H     5.392000000    -0.158000000     2.718000000
O     3.573000000    -6.362000000    -0.913000000
H     2.663000000    -6.652000000    -0.971000000
H     3.516000000    -5.443000000    -0.648000000
O    -5.088000000     0.166000000     1.071000000
H    -5.920000000     0.203000000     1.544000000
H    -5.009000000    -0.749000000     0.798000000
O    -1.681000000    -6.340000000    -2.262000000
H    -1.262000000    -5.972000000    -1.483000000
H    -1.686000000    -5.620000000    -2.893000000
O    -3.842000000    -3.039000000     2.489000000
H    -3.871000000    -3.088000000     1.534000000
H    -4.746000000    -2.856000000     2.747000000
O    -2.368000000    -5.468000000     1.970000000
H    -3.067000000    -6.112000000     2.086000000
H    -2.710000000    -4.669000000     2.372000000
O     0.845000000     4.136000000    -2.600000000
H     0.312000000     3.467000000    -2.171000000
H     1.748000000     3.878000000    -2.415000000
O    -0.451000000     4.824000000     1.410000000
H    -0.611000000     4.498000000     2.295000000
H     0.173000000     5.540000000     1.527000000
O     4.944000000     1.385000000    -4.478000000
H     5.759000000     1.040000000    -4.115000000
H     4.282000000     0.736000000    -4.239000000
O    -4.102000000     1.598000000    -2.345000000
H    -3.916000000     1.376000000    -1.433000000
H    -3.442000000     2.253000000    -2.572000000
O     0.680000000    -3.970000000    -2.741000000
H     0.440000000    -3.921000000    -1.816000000
H     1.636000000    -4.003000000    -2.739000000
O    -7.628000000     1.925000000    -0.842000000
H    -8.554000000     2.045000000    -0.632000000
H    -7.410000000     1.064000000    -0.486000000
O     2.875000000    -0.346000000    -4.050000000
H     2.075000000     0.170000000    -4.151000000
H     3.158000000    -0.175000000    -3.152000000
O     0.094000000     0.743000000    -4.792000000
H    -0.340000000     0.271000000    -5.503000000
H     0.243000000     1.621000000    -5.142000000
O    -5.422000000     3.670000000     0.549000000
H    -5.924000000     2.857000000     0.480000000
H    -4.511000000     3.384000000     0.616000000
O     0.456000000     2.391000000     5.348000000
H     0.770000000     1.537000000     5.050000000
H     0.010000000     2.761000000     4.586000000
O     7.132000000     3.249000000    -0.217000000
H     7.535000000     2.800000000    -0.959000000
H     6.600000000     3.939000000    -0.614000000
O    -1.577000000     3.458000000     3.556000000
H    -2.188000000     2.722000000     3.529000000
H    -2.041000000     4.137000000     4.048000000
O    -1.648000000    -4.136000000    -3.910000000
H    -1.658000000    -4.051000000    -4.864000000
H    -0.724000000    -4.068000000    -3.674000000
O    -3.796000000     5.836000000     0.705000000
H    -4.475000000     5.162000000     0.728000000
H    -2.980000000     5.359000000     0.855000000
O     3.676000000     3.661000000    -2.121000000
H     3.671000000     2.987000000    -1.441000000
H     3.688000000     3.170000000    -2.943000000
O    -2.275000000     3.577000000    -2.365000000
H    -1.519000000     3.006000000    -2.222000000
H    -1.961000000     4.243000000    -2.976000000
O     2.838000000     4.001000000     2.248000000
H     3.478000000     3.335000000     1.996000000
H     2.123000000     3.895000000     1.620000000
O    -2.459000000    -2.738000000     5.295000000
H    -3.176000000    -2.118000000     5.159000000
H    -1.788000000    -2.469000000     4.667000000
O     4.005000000     0.884000000     3.427000000
H     3.460000000     1.204000000     4.146000000
H     4.636000000     1.588000000     3.274000000
O     1.768000000     6.482000000     1.082000000
H     1.644000000     7.377000000     0.765000000
H     2.700000000     6.429000000     1.292000000
O    -3.431000000     1.552000000     3.392000000
H    -3.561000000     0.810000000     3.982000000
H    -4.109000000     1.448000000     2.724000000
O     5.778000000     5.103000000    -1.379000000
H     5.001000000     4.598000000    -1.618000000
H     6.086000000     5.476000000    -2.205000000
O    -1.273000000    -2.180000000     2.734000000
H    -1.028000000    -1.642000000     1.981000000
H    -2.191000000    -2.402000000     2.582000000
O    -4.585000000    -0.587000000     5.184000000
H    -4.861000000    -0.305000000     6.056000000
H    -5.394000000    -0.601000000     4.671000000
O     4.471000000    -3.603000000    -0.538000000
H     5.263000000    -3.358000000    -0.059000000
H     4.778000000    -3.804000000    -1.422000000
O     2.823000000     5.424000000     5.068000000
H     2.612000000     4.845000000     4.336000000
H     3.778000000     5.409000000     5.117000000
O    -0.302000000     1.747000000    -2.139000000
H    -0.331000000     1.028000000    -1.508000000
H    -0.276000000     1.316000000    -2.993000000
O    -7.041000000    -1.860000000     0.123000000
H    -6.442000000    -2.602000000     0.048000000
H    -6.838000000    -1.312000000    -0.636000000
O     6.860000000    -2.540000000     0.542000000
H     6.633000000    -2.016000000     1.311000000
H     6.663000000    -1.971000000    -0.202000000
O     5.226000000     2.580000000     1.842000000
H     4.493000000     2.222000000     1.341000000
H     5.867000000     2.837000000     1.179000000
O     0.452000000    -3.568000000    -6.016000000
H     1.300000000    -3.609000000    -6.459000000
H     0.671000000    -3.478000000    -5.088000000
O     1.423000000    -2.754000000     3.477000000
H     0.529000000    -2.510000000     3.235000000
H     1.318000000    -3.331000000     4.233000000
O     3.113000000    -3.212000000    -3.977000000
H     3.927000000    -3.507000000    -3.568000000
H     3.124000000    -2.260000000    -3.871000000
O     1.180000000     0.143000000     4.025000000
H     1.296000000     0.414000000     3.114000000
H     1.495000000    -0.761000000     4.048000000
O    -0.350000000    -4.820000000    -0.254000000
H    -1.288000000    -4.690000000    -0.116000000
H     0.038000000    -4.699000000     0.613000000
O    -3.793000000    -2.614000000    -2.670000000
H    -2.917000000    -2.722000000    -3.042000000
H    -4.354000000    -3.162000000    -3.219000000
