158
-3057.99213
C     0.094000000    -0.386000000    -1.456000000
H     0.072000000    -0.871000000    -2.429000000
C    -0.985000000    -0.502000000    -0.669000000
H    -1.885000000    -1.060000000    -0.914000000
C    -1.058000000    -0.022000000     0.576000000
H    -1.945000000    -0.205000000     1.145000000
C     0.088000000     0.521000000     1.171000000
H     0.028000000     0.785000000     2.224000000
C     1.286000000     0.603000000     0.476000000
H     2.220000000     0.930000000     0.926000000
C     1.294000000     0.197000000    -0.907000000
C     2.636000000     0.194000000    -1.593000000
O     2.795000000    -0.427000000    -2.711000000
O     3.539000000     0.845000000    -0.995000000
O    -7.382000000    -0.249000000     2.549000000
H    -7.482000000    -0.309000000     3.499000000
H    -6.438000000    -0.306000000     2.403000000
O    -6.293000000     2.690000000    -0.930000000
H    -6.608000000     2.799000000    -0.033000000
H    -7.028000000     2.292000000    -1.396000000
O     6.014000000     0.135000000    -2.221000000
H     5.973000000    -0.820000000    -2.163000000
H     5.136000000     0.427000000    -1.980000000
O     4.830000000     1.637000000     1.247000000
H     4.387000000     1.481000000     0.413000000
H     5.281000000     0.814000000     1.437000000
O     1.094000000    -2.923000000     0.206000000
H     0.403000000    -3.578000000     0.113000000
H     0.682000000    -2.100000000    -0.059000000
O    -7.361000000     2.509000000     1.891000000
H    -7.145000000     1.578000000     1.947000000
H    -8.292000000     2.553000000     2.107000000
O    -4.495000000    -1.487000000    -3.607000000
H    -5.279000000    -1.186000000    -4.068000000
H    -4.782000000    -1.608000000    -2.702000000
O    -2.991000000     1.178000000     3.487000000
H    -3.237000000     2.062000000     3.757000000
H    -2.170000000     1.006000000     3.949000000
O    -1.487000000     2.851000000    -0.298000000
H    -1.178000000     1.989000000    -0.020000000
H    -0.806000000     3.168000000    -0.893000000
O     0.606000000     3.649000000    -1.985000000
H     1.548000000     3.785000000    -1.890000000
H     0.520000000     3.094000000    -2.760000000
O     0.232000000    -4.460000000     4.783000000
H     0.008000000    -3.870000000     4.063000000
H    -0.391000000    -5.183000000     4.702000000
O     3.334000000     1.423000000    -7.569000000
H     2.803000000     0.784000000    -8.045000000
H     3.101000000     1.291000000    -6.650000000
O     3.260000000    -2.084000000    -6.859000000
H     2.542000000    -1.453000000    -6.911000000
H     3.690000000    -1.890000000    -6.027000000
O     2.442000000     1.366000000    -4.734000000
H     1.801000000     1.961000000    -4.346000000
H     2.514000000     0.647000000    -4.106000000
O    -2.706000000     0.648000000    -3.377000000
H    -2.603000000     0.865000000    -2.451000000
H    -3.364000000    -0.047000000    -3.388000000
O     5.911000000     1.947000000    -4.888000000
H     5.336000000     2.687000000    -4.695000000
H     6.244000000     1.673000000    -4.034000000
O    -0.057000000     2.665000000     3.733000000
H    -0.032000000     1.860000000     4.250000000
H     0.767000000     2.662000000     3.246000000
O     3.692000000    -3.489000000     0.509000000
H     3.877000000    -3.892000000    -0.339000000
H     2.769000000    -3.238000000     0.459000000
O     0.642000000     5.566000000    -0.008000000
H     0.385000000     4.956000000    -0.699000000
H     1.555000000     5.778000000    -0.204000000
O     7.228000000     2.749000000    -1.129000000
H     7.039000000     2.994000000    -0.223000000
H     6.940000000     1.839000000    -1.196000000
O    -4.079000000    -2.872000000    -0.267000000
H    -4.663000000    -3.417000000     0.261000000
H    -4.092000000    -3.278000000    -1.134000000
O     4.474000000    -0.949000000    -4.640000000
H     4.612000000    -0.088000000    -5.037000000
H     3.910000000    -0.777000000    -3.886000000
O    -5.976000000    -1.212000000    -1.227000000
H    -5.388000000    -1.268000000    -0.474000000
H    -6.854000000    -1.261000000    -0.848000000
O    -4.595000000    -0.077000000     1.837000000
H    -4.273000000     0.247000000     0.996000000
H    -3.971000000     0.261000000     2.479000000
O    -2.539000000     3.302000000     5.082000000
H    -2.436000000     3.237000000     6.031000000
H    -1.644000000     3.307000000     4.744000000
O     3.392000000     3.263000000    -2.249000000
H     4.076000000     3.744000000    -1.782000000
H     3.354000000     2.414000000    -1.809000000
O     2.061000000     4.659000000     2.674000000
H     2.156000000     3.708000000     2.737000000
H     1.614000000     4.799000000     1.839000000
O    -0.266000000     2.084000000    -3.963000000
H    -0.986000000     1.457000000    -3.902000000
H    -0.546000000     2.706000000    -4.635000000
O     0.589000000     1.557000000     6.780000000
H    -0.088000000     2.105000000     7.176000000
H     0.351000000     0.664000000     7.028000000
O     5.863000000     5.373000000    -1.842000000
H     6.456000000     5.943000000    -2.331000000
H     6.243000000     4.499000000    -1.931000000
O    -3.700000000     4.582000000     0.493000000
H    -3.788000000     4.630000000    -0.459000000
H    -2.992000000     3.955000000     0.638000000
O    -3.044000000    -1.917000000     5.606000000
H    -3.278000000    -1.001000000     5.757000000
H    -3.795000000    -2.413000000     5.931000000
O     5.186000000    -2.576000000     2.647000000
H     4.453000000    -2.103000000     3.041000000
H     4.852000000    -2.874000000     1.801000000
O    -3.343000000    -2.407000000     2.625000000
H    -3.736000000    -1.993000000     3.394000000
H    -3.925000000    -2.170000000     1.903000000
O     1.124000000    -4.369000000    -5.158000000
H     1.764000000    -5.050000000    -5.365000000
H     1.332000000    -4.109000000    -4.261000000
O    -1.104000000     5.113000000     2.225000000
H    -0.900000000     4.200000000     2.426000000
H    -0.838000000     5.223000000     1.312000000
O     6.785000000    -2.536000000    -4.624000000
H     6.617000000    -3.056000000    -5.410000000
H     6.041000000    -1.937000000    -4.570000000
O    -0.736000000    -0.216000000     4.745000000
H    -1.310000000    -0.712000000     5.328000000
H    -0.644000000    -0.770000000     3.970000000
O    -3.795000000     1.183000000    -0.746000000
H    -4.579000000     1.732000000    -0.739000000
H    -3.094000000     1.760000000    -0.443000000
O     5.517000000     4.267000000     1.914000000
H     5.386000000     3.345000000     1.692000000
H     5.600000000     4.274000000     2.868000000
O     6.475000000    -0.298000000     1.781000000
H     7.187000000    -0.319000000     2.420000000
H     5.879000000    -0.992000000     2.062000000
O     4.595000000    -4.204000000    -2.316000000
H     4.718000000    -4.897000000    -2.964000000
H     4.673000000    -3.392000000    -2.817000000
O     2.782000000    -0.946000000     3.446000000
H     2.436000000    -1.530000000     2.771000000
H     2.071000000    -0.328000000     3.616000000
O     3.463000000     5.256000000    -0.207000000
H     3.657000000     5.075000000     0.713000000
H     4.295000000     5.552000000    -0.574000000
O    -1.521000000    -4.033000000     0.185000000
H    -1.940000000    -4.825000000     0.522000000
H    -2.244000000    -3.501000000    -0.146000000
O    -0.696000000    -2.624000000     2.878000000
H    -0.406000000    -2.996000000     2.045000000
H    -1.647000000    -2.552000000     2.789000000
O     2.919000000     2.260000000     3.011000000
H     3.703000000     2.093000000     2.489000000
H     3.162000000     1.998000000     3.899000000
O    -2.363000000    -2.888000000    -4.999000000
H    -2.125000000    -2.333000000    -5.741000000
H    -3.184000000    -2.518000000    -4.676000000
