158
-3018.38654
C     1.222000000    -0.585000000     0.517000000
H     2.043000000    -1.187000000     0.899000000
C    -0.114000000    -0.851000000     0.893000000
H    -0.287000000    -1.563000000     1.697000000
C    -1.130000000    -0.137000000     0.393000000
H    -2.158000000    -0.302000000     0.733000000
C    -0.997000000     0.845000000    -0.544000000
H    -1.830000000     1.433000000    -0.921000000
C     0.347000000     1.185000000    -0.908000000
H     0.504000000     1.961000000    -1.653000000
C     1.448000000     0.416000000    -0.398000000
C     2.866000000     0.513000000    -0.900000000
O     3.783000000    -0.195000000    -0.488000000
O     3.053000000     1.377000000    -1.740000000
O     1.338000000    -4.022000000     3.200000000
H     0.907000000    -3.168000000     3.203000000
H     1.065000000    -4.425000000     2.376000000
O    -5.312000000     3.495000000     0.101000000
H    -5.659000000     2.643000000     0.366000000
H    -5.815000000     3.725000000    -0.681000000
O    -6.584000000     0.343000000     0.724000000
H    -7.389000000     0.839000000     0.875000000
H    -6.130000000     0.360000000     1.566000000
O     4.675000000     1.688000000    -5.389000000
H     4.976000000     0.791000000    -5.533000000
H     4.256000000     1.934000000    -6.214000000
O    -0.558000000     3.954000000     2.594000000
H    -0.259000000     3.045000000     2.600000000
H    -0.560000000     4.199000000     1.669000000
O     0.826000000    -0.842000000     4.200000000
H     0.204000000    -0.177000000     3.905000000
H     0.420000000    -1.221000000     4.980000000
O     4.329000000    -4.345000000     2.017000000
H     3.893000000    -3.774000000     1.383000000
H     5.191000000    -3.949000000     2.141000000
O     6.032000000     0.614000000     0.516000000
H     6.701000000    -0.057000000     0.652000000
H     5.378000000     0.191000000    -0.040000000
O     0.578000000     1.511000000     2.462000000
H     1.491000000     1.743000000     2.632000000
H     0.599000000     1.061000000     1.617000000
O     0.033000000     2.253000000    -5.566000000
H    -0.126000000     1.330000000    -5.367000000
H     0.938000000     2.404000000    -5.292000000
O    -5.682000000     0.886000000     3.339000000
H    -5.984000000     1.497000000     4.011000000
H    -4.857000000     0.542000000     3.681000000
O    -3.323000000    -5.806000000    -0.339000000
H    -3.175000000    -5.229000000     0.410000000
H    -4.249000000    -5.692000000    -0.551000000
O     2.926000000     3.975000000    -2.111000000
H     2.989000000     3.020000000    -2.142000000
H     1.988000000     4.151000000    -2.038000000
O     5.448000000     1.532000000    -2.823000000
H     4.640000000     1.338000000    -2.349000000
H     5.214000000     1.436000000    -3.746000000
O    -5.838000000    -2.565000000     2.474000000
H    -5.889000000    -2.583000000     1.518000000
H    -6.356000000    -1.800000000     2.726000000
O    -0.683000000    -0.361000000    -4.713000000
H    -1.209000000    -0.489000000    -5.502000000
H    -1.274000000    -0.584000000    -3.993000000
O     3.601000000    -3.152000000    -0.860000000
H     2.760000000    -3.377000000    -1.257000000
H     3.655000000    -2.200000000    -0.934000000
O    -3.076000000    -0.337000000     4.797000000
H    -2.436000000     0.369000000     4.890000000
H    -3.074000000    -0.776000000     5.648000000
O    -0.927000000     1.391000000     5.253000000
H    -0.466000000     1.187000000     6.067000000
H    -0.281000000     1.854000000     4.721000000
O    -1.715000000    -1.707000000    -2.175000000
H    -1.946000000    -2.394000000    -1.550000000
H    -1.354000000    -1.003000000    -1.635000000
O    -4.907000000    -4.895000000     3.359000000
H    -5.323000000    -4.055000000     3.161000000
H    -4.166000000    -4.943000000     2.755000000
O    -3.861000000     0.513000000    -4.628000000
H    -3.479000000     0.212000000    -5.452000000
H    -4.805000000     0.409000000    -4.749000000
O     4.177000000    -1.363000000     1.687000000
H     3.994000000    -1.017000000     0.814000000
H     5.075000000    -1.691000000     1.632000000
O    -2.376000000    -5.149000000     2.362000000
H    -2.081000000    -4.274000000     2.615000000
H    -1.638000000    -5.721000000     2.572000000
O     1.091000000    -3.965000000    -1.966000000
H     1.569000000    -4.377000000    -2.686000000
H     0.250000000    -3.715000000    -2.349000000
O     3.391000000     2.324000000     2.889000000
H     3.759000000     1.548000000     3.313000000
H     3.764000000     2.315000000     2.008000000
O     3.363000000    -1.524000000     4.326000000
H     2.438000000    -1.302000000     4.214000000
H     3.798000000    -1.128000000     3.572000000
O    -2.740000000     3.609000000     4.241000000
H    -1.980000000     3.739000000     3.673000000
H    -2.634000000     2.720000000     4.581000000
O     6.533000000     4.133000000    -4.383000000
H     5.957000000     3.575000000    -3.861000000
H     7.417000000     3.859000000    -4.141000000
O    -0.095000000     3.948000000    -3.436000000
H    -0.360000000     3.476000000    -4.226000000
H     0.166000000     4.813000000    -3.750000000
O    -3.023000000    -2.464000000     2.879000000
H    -2.720000000    -1.818000000     3.517000000
H    -3.957000000    -2.563000000     3.063000000
O     6.988000000     2.004000000     2.728000000
H     7.911000000     1.789000000     2.858000000
H     6.720000000     1.469000000     1.981000000
O    -4.410000000    -0.917000000    -0.571000000
H    -5.110000000    -0.447000000    -0.117000000
H    -4.752000000    -1.061000000    -1.453000000
O    -4.263000000    -2.768000000    -3.347000000
H    -3.367000000    -2.593000000    -3.058000000
H    -4.480000000    -2.027000000    -3.913000000
O     6.708000000    -2.849000000     2.504000000
H     6.870000000    -2.272000000     3.250000000
H     7.034000000    -2.361000000     1.748000000
O    -2.918000000     3.413000000    -5.543000000
H    -2.301000000     2.721000000    -5.779000000
H    -3.069000000     3.290000000    -4.606000000
O    -3.791000000     2.510000000    -2.742000000
H    -3.984000000     1.891000000    -3.446000000
H    -4.270000000     2.169000000    -1.986000000
O     0.542000000     6.259000000    -1.853000000
H     0.671000000     7.156000000    -2.163000000
H     1.138000000     5.734000000    -2.387000000
O     0.396000000    -4.706000000     0.663000000
H    -0.196000000    -5.455000000     0.593000000
H     0.627000000    -4.498000000    -0.242000000
O     8.112000000     0.277000000    -1.974000000
H     7.369000000     0.785000000    -2.301000000
H     8.607000000     0.044000000    -2.760000000
O    -1.224000000     4.585000000     0.033000000
H    -0.721000000     5.096000000    -0.601000000
H    -1.788000000     4.027000000    -0.502000000
O    -2.729000000    -3.003000000    -0.054000000
H    -2.390000000    -2.917000000     0.837000000
H    -3.251000000    -2.212000000    -0.189000000
O     2.067000000    -0.433000000    -4.196000000
H     1.182000000    -0.180000000    -4.458000000
H     2.122000000    -0.187000000    -3.272000000
O    -3.776000000     4.886000000     1.985000000
H    -4.192000000     4.379000000     1.288000000
H    -3.967000000     4.396000000     2.785000000
O    -1.492000000    -5.043000000    -2.460000000
H    -2.065000000    -5.070000000    -1.694000000
H    -1.115000000    -5.922000000    -2.508000000
O     7.214000000    -1.776000000     0.022000000
H     7.624000000    -1.296000000    -0.698000000
H     6.996000000    -2.630000000    -0.352000000
O     4.514000000     3.124000000     0.189000000
H     5.243000000     2.580000000    -0.111000000
H     3.816000000     2.960000000    -0.445000000
O     2.365000000     3.289000000    -4.970000000
H     3.251000000     3.135000000    -4.644000000
H     2.160000000     4.183000000    -4.696000000
