158
-3032.00916
C     0.892000000    -0.704000000     0.875000000
H     1.397000000    -1.251000000     1.668000000
C    -0.507000000    -0.623000000     1.015000000
H    -1.048000000    -1.129000000     1.810000000
C    -1.225000000     0.146000000     0.119000000
H    -2.332000000     0.346000000     0.152000000
C    -0.608000000     0.811000000    -0.925000000
H    -1.215000000     1.310000000    -1.677000000
C     0.786000000     0.690000000    -1.031000000
H     1.315000000     1.199000000    -1.832000000
C     1.556000000    -0.075000000    -0.152000000
C     3.112000000    -0.205000000    -0.288000000
O     3.781000000    -0.970000000     0.378000000
O     3.710000000     0.192000000    -1.225000000
O     0.567000000    -4.793000000     5.591000000
H     0.406000000    -3.898000000     5.293000000
H     1.507000000    -4.821000000     5.769000000
O    -4.212000000     2.016000000    -0.821000000
H    -3.578000000     1.314000000    -0.970000000
H    -4.915000000     1.840000000    -1.447000000
O    -6.624000000    -0.791000000    -3.910000000
H    -7.061000000    -0.978000000    -4.741000000
H    -6.468000000     0.153000000    -3.929000000
O    -5.243000000    -0.657000000     1.757000000
H    -5.113000000     0.250000000     2.036000000
H    -5.903000000    -1.000000000     2.359000000
O    -0.539000000     3.476000000     1.886000000
H    -0.896000000     2.588000000     1.862000000
H    -0.331000000     3.675000000     0.973000000
O    -0.231000000    -1.962000000     5.740000000
H    -0.012000000    -1.156000000     5.273000000
H     0.279000000    -1.917000000     6.549000000
O     8.330000000     0.834000000    -0.576000000
H     8.671000000     0.403000000    -1.360000000
H     7.653000000     0.240000000    -0.252000000
O     6.399000000    -0.857000000     0.205000000
H     6.826000000    -1.651000000     0.527000000
H     5.463000000    -1.032000000     0.303000000
O     0.378000000     0.533000000     5.153000000
H     1.081000000     1.172000000     5.044000000
H    -0.089000000     0.546000000     4.318000000
O     0.068000000     1.424000000    -4.220000000
H     0.635000000     0.655000000    -4.281000000
H     0.340000000     1.859000000    -3.412000000
O    -2.461000000     0.917000000     3.007000000
H    -2.750000000     1.279000000     3.845000000
H    -2.573000000    -0.029000000     3.104000000
O     5.382000000     2.571000000    -1.227000000
H     5.665000000     2.579000000    -2.142000000
H     5.032000000     1.691000000    -1.092000000
O    -4.572000000     4.839000000    -0.092000000
H    -4.002000000     4.086000000    -0.249000000
H    -4.913000000     5.066000000    -0.957000000
O     6.311000000    -1.187000000     3.140000000
H     7.072000000    -0.681000000     3.424000000
H     6.666000000    -1.829000000     2.525000000
O     5.883000000    -0.168000000    -3.287000000
H     5.315000000    -0.193000000    -2.516000000
H     5.643000000    -0.949000000    -3.786000000
O    -4.745000000    -3.724000000     1.782000000
H    -5.268000000    -3.540000000     1.002000000
H    -5.160000000    -3.212000000     2.476000000
O    -7.960000000     0.790000000     2.393000000
H    -8.174000000     1.167000000     3.247000000
H    -7.115000000     1.176000000     2.166000000
O     0.313000000    -2.066000000    -4.405000000
H    -0.419000000    -2.431000000    -4.903000000
H     0.079000000    -2.217000000    -3.489000000
O     4.553000000    -3.295000000    -0.768000000
H     4.262000000    -4.066000000    -0.280000000
H     4.307000000    -2.554000000    -0.215000000
O    -2.373000000    -1.859000000     3.882000000
H    -1.826000000    -1.560000000     4.607000000
H    -3.079000000    -2.352000000     4.301000000
O    -0.447000000    -2.332000000    -1.680000000
H    -0.264000000    -1.676000000    -1.008000000
H    -1.283000000    -2.717000000    -1.418000000
O    -6.378000000    -3.575000000    -0.607000000
H    -6.143000000    -4.497000000    -0.706000000
H    -7.335000000    -3.575000000    -0.566000000
O     6.969000000    -4.137000000    -1.002000000
H     7.562000000    -3.586000000    -1.512000000
H     6.126000000    -3.687000000    -1.046000000
O     1.020000000     5.156000000    -4.398000000
H     1.514000000     5.976000000    -4.415000000
H     0.272000000     5.315000000    -4.973000000
O     3.703000000    -1.661000000     2.987000000
H     3.481000000    -1.490000000     2.071000000
H     4.660000000    -1.644000000     3.008000000
O     2.805000000    -5.334000000    -0.091000000
H     2.965000000    -6.063000000    -0.691000000
H     2.007000000    -4.923000000    -0.422000000
O    -6.110000000     1.975000000    -2.931000000
H    -5.948000000     2.735000000    -3.488000000
H    -6.868000000     2.223000000    -2.401000000
O     4.158000000     0.697000000     4.055000000
H     3.696000000    -0.090000000     3.765000000
H     4.704000000     0.943000000     3.309000000
O     2.966000000    -4.515000000     3.674000000
H     2.043000000    -4.714000000     3.518000000
H     3.132000000    -3.725000000     3.161000000
O    -3.368000000     1.615000000     5.447000000
H    -3.687000000     2.517000000     5.400000000
H    -2.623000000     1.656000000     6.047000000
O     6.932000000     2.436000000    -3.812000000
H     6.525000000     1.574000000    -3.730000000
H     7.842000000     2.251000000    -4.046000000
O    -0.175000000     4.219000000    -1.971000000
H    -1.090000000     4.022000000    -2.172000000
H     0.055000000     4.927000000    -2.572000000
O    -2.283000000    -4.669000000     2.003000000
H    -1.877000000    -4.190000000     2.726000000
H    -3.161000000    -4.295000000     1.931000000
O    -4.954000000    -1.184000000    -0.950000000
H    -5.031000000    -0.905000000    -0.037000000
H    -5.627000000    -1.857000000    -1.052000000
O     7.334000000    -3.435000000     1.624000000
H     7.280000000    -3.816000000     0.748000000
H     7.607000000    -4.161000000     2.185000000
O     3.440000000     3.073000000     1.116000000
H     3.549000000     2.968000000     0.171000000
H     4.147000000     2.553000000     1.498000000
O     2.221000000     3.028000000    -5.831000000
H     1.639000000     3.585000000    -5.315000000
H     2.805000000     2.629000000    -5.186000000
O    -2.228000000     2.724000000    -4.598000000
H    -1.396000000     2.261000000    -4.693000000
H    -2.791000000     2.112000000    -4.123000000
O    -3.551000000     0.259000000    -3.357000000
H    -4.234000000    -0.351000000    -3.079000000
H    -2.829000000     0.105000000    -2.748000000
O     2.533000000     5.669000000    -1.068000000
H     2.158000000     4.895000000    -1.487000000
H     3.209000000     5.322000000    -0.485000000
O    -3.151000000     5.427000000    -2.988000000
H    -3.338000000     5.132000000    -3.879000000
H    -3.699000000     6.203000000    -2.873000000
O     8.141000000    -1.493000000    -2.427000000
H     7.383000000    -0.970000000    -2.688000000
H     8.798000000    -1.315000000    -3.099000000
O    -2.712000000    -3.433000000    -1.093000000
H    -2.595000000    -3.815000000    -0.224000000
H    -3.450000000    -2.832000000    -0.993000000
O    -4.880000000     1.017000000    -5.678000000
H    -4.273000000     1.467000000    -6.266000000
H    -4.439000000     1.026000000    -4.828000000
O     3.658000000    -2.319000000    -3.279000000
H     3.839000000    -2.173000000    -2.351000000
H     2.773000000    -1.977000000    -3.407000000
O    -4.989000000     2.180000000     1.999000000
H    -4.139000000     1.842000000     1.715000000
H    -5.082000000     3.013000000     1.536000000
O     5.817000000     1.669000000     2.010000000
H     6.470000000     2.354000000     2.155000000
H     6.233000000     1.070000000     1.390000000
O     3.193000000     1.285000000    -3.911000000
H     3.459000000     0.984000000    -3.042000000
H     3.874000000     0.956000000    -4.497000000
