158
-3061.67216
C     0.966000000    -0.814000000    -0.875000000
H     1.662000000    -1.229000000    -1.599000000
C     0.857000000     0.601000000    -0.781000000
H     1.538000000     1.219000000    -1.360000000
C    -0.057000000     1.235000000     0.129000000
H    -0.056000000     2.326000000     0.307000000
C    -0.725000000     0.449000000     1.038000000
H    -1.506000000     0.864000000     1.670000000
C    -0.665000000    -0.921000000     0.905000000
H    -1.383000000    -1.552000000     1.422000000
C     0.185000000    -1.581000000    -0.001000000
C     0.205000000    -3.082000000    -0.192000000
O    -0.715000000    -3.667000000     0.348000000
O     0.955000000    -3.638000000    -1.011000000
O     4.373000000    -5.757000000    -3.458000000
H     3.519000000    -6.132000000    -3.243000000
H     4.778000000    -5.580000000    -2.609000000
O    -2.417000000     6.395000000     2.833000000
H    -2.905000000     6.078000000     2.073000000
H    -3.084000000     6.770000000     3.407000000
O     2.704000000     3.740000000     0.100000000
H     3.494000000     3.530000000     0.599000000
H     2.809000000     3.265000000    -0.725000000
O    -1.234000000     2.133000000    -3.152000000
H    -1.733000000     2.611000000    -2.490000000
H    -1.277000000     1.219000000    -2.871000000
O     5.737000000    -0.525000000    -0.022000000
H     5.354000000    -0.827000000    -0.846000000
H     6.200000000     0.280000000    -0.254000000
O    -1.072000000    -7.832000000    -2.178000000
H    -1.084000000    -6.879000000    -2.267000000
H    -1.996000000    -8.081000000    -2.141000000
O     2.389000000     1.326000000     2.196000000
H     2.245000000     1.387000000     1.251000000
H     2.547000000     2.229000000     2.473000000
O     0.972000000     0.404000000     4.536000000
H     0.940000000     0.634000000     3.607000000
H     1.307000000    -0.493000000     4.550000000
O    -3.345000000    -3.290000000     1.410000000
H    -3.791000000    -4.018000000     1.843000000
H    -2.415000000    -3.450000000     1.570000000
O    -5.688000000     1.649000000    -2.505000000
H    -5.561000000     1.548000000    -1.562000000
H    -5.807000000     2.591000000    -2.632000000
O     0.773000000    -3.243000000     3.591000000
H     0.893000000    -3.087000000     4.527000000
H     1.359000000    -2.616000000     3.166000000
O    -1.858000000    -5.935000000     0.922000000
H    -1.988000000    -5.677000000     1.834000000
H    -1.503000000    -5.153000000     0.499000000
O     3.339000000     2.959000000    -2.581000000
H     2.779000000     3.358000000    -3.247000000
H     3.987000000     2.462000000    -3.079000000
O    -1.205000000    -0.686000000    -2.937000000
H    -0.569000000    -0.524000000    -2.240000000
H    -0.691000000    -0.651000000    -3.743000000
O     3.480000000    -1.443000000    -4.911000000
H     2.904000000    -2.195000000    -5.052000000
H     4.193000000    -1.568000000    -5.537000000
O     1.446000000     6.271000000    -0.105000000
H     1.850000000     5.422000000     0.077000000
H     2.059000000     6.910000000     0.259000000
O     2.058000000    -5.369000000     2.366000000
H     1.926000000    -6.021000000     3.055000000
H     1.525000000    -4.622000000     2.637000000
O    -3.699000000     2.392000000     2.118000000
H    -3.826000000     1.459000000     1.949000000
H    -3.069000000     2.421000000     2.838000000
O     3.503000000    -2.963000000    -0.669000000
H     2.639000000    -3.270000000    -0.943000000
H     3.563000000    -3.210000000     0.254000000
O     0.287000000     4.347000000     4.896000000
H     0.272000000     5.231000000     5.263000000
H     0.952000000     4.384000000     4.209000000
O    -2.766000000    -0.039000000     5.059000000
H    -3.235000000    -0.473000000     4.346000000
H    -2.451000000     0.779000000     4.676000000
O    -1.339000000     2.311000000     4.011000000
H    -0.717000000     3.022000000     3.856000000
H    -0.917000000     1.764000000     4.673000000
O    -1.670000000    -4.897000000     3.654000000
H    -2.214000000    -4.146000000     3.892000000
H    -0.772000000    -4.569000000     3.708000000
O     4.450000000    -3.981000000     1.576000000
H     5.124000000    -4.660000000     1.544000000
H     3.776000000    -4.339000000     2.154000000
O    -3.878000000    -0.824000000     2.400000000
H    -4.835000000    -0.836000000     2.427000000
H    -3.637000000    -1.674000000     2.031000000
O    -2.577000000     4.874000000    -2.411000000
H    -3.333000000     5.148000000    -2.930000000
H    -2.950000000     4.355000000    -1.698000000
O    -2.951000000     2.206000000    -0.766000000
H    -3.371000000     2.448000000     0.060000000
H    -2.810000000     1.262000000    -0.695000000
O    -4.736000000     5.479000000     1.042000000
H    -4.962000000     5.630000000     1.959000000
H    -5.088000000     4.610000000     0.849000000
O     1.832000000    -6.509000000    -2.841000000
H     0.895000000    -6.510000000    -3.036000000
H     1.877000000    -6.532000000    -1.885000000
O     0.835000000     3.815000000    -4.222000000
H     0.253000000     3.203000000    -3.773000000
H     0.469000000     3.891000000    -5.103000000
O     5.487000000     3.192000000     0.569000000
H     6.312000000     3.537000000     0.909000000
H     5.745000000     2.460000000     0.009000000
O     5.781000000    -5.357000000    -0.751000000
H     5.056000000    -5.187000000    -0.149000000
H     6.197000000    -4.503000000    -0.870000000
O     0.500000000    -0.386000000    -5.058000000
H     0.675000000     0.332000000    -5.667000000
H     1.291000000    -0.444000000    -4.523000000
O    -3.005000000     3.135000000    -5.086000000
H    -3.392000000     2.339000000    -5.451000000
H    -2.417000000     2.821000000    -4.399000000
O     1.649000000    -6.224000000    -0.234000000
H     1.877000000    -6.230000000     0.696000000
H     1.248000000    -5.367000000    -0.377000000
O     4.457000000    -1.187000000    -2.430000000
H     4.211000000    -1.890000000    -1.830000000
H     3.978000000    -1.382000000    -3.236000000
O    -1.355000000    -5.165000000    -2.419000000
H    -1.237000000    -4.444000000    -1.800000000
H    -1.095000000    -4.799000000    -3.265000000
O    -4.697000000    -2.726000000    -0.999000000
H    -5.124000000    -3.575000000    -1.121000000
H    -4.053000000    -2.879000000    -0.308000000
O     5.030000000     1.063000000    -3.613000000
H     5.238000000     0.571000000    -4.408000000
H     4.794000000     0.392000000    -2.972000000
O     2.250000000     4.055000000     3.052000000
H     3.178000000     4.206000000     3.235000000
H     2.103000000     4.471000000     2.203000000
O     1.680000000     6.183000000    -3.114000000
H     2.055000000     6.186000000    -2.233000000
H     1.295000000     5.312000000    -3.207000000
O     1.323000000    -3.152000000    -3.871000000
H     1.397000000    -3.993000000    -4.321000000
H     1.343000000    -3.376000000    -2.940000000
O    -5.855000000     2.942000000     0.330000000
H    -6.682000000     2.508000000     0.541000000
H    -5.257000000     2.667000000     1.025000000
O    -0.648000000    -8.624000000     0.584000000
H    -0.688000000    -8.422000000    -0.351000000
H    -1.225000000    -7.978000000     0.993000000
O     2.651000000    -1.295000000     2.670000000
H     2.836000000    -0.356000000     2.676000000
H     3.132000000    -1.629000000     1.913000000
O    -1.071000000     7.006000000    -1.515000000
H    -0.249000000     6.703000000    -1.130000000
H    -1.392000000     6.256000000    -2.016000000
O    -3.814000000    -1.547000000    -3.530000000
H    -2.943000000    -1.195000000    -3.349000000
H    -4.058000000    -2.007000000    -2.727000000
O    -4.064000000    -6.604000000    -0.460000000
H    -4.516000000    -7.241000000     0.094000000
H    -3.247000000    -6.422000000     0.004000000
