158
-3015.67341
C    -0.145000000    -1.486000000     0.036000000
H    -0.384000000    -2.545000000     0.098000000
C    -1.197000000    -0.602000000    -0.013000000
H    -2.252000000    -0.854000000     0.040000000
C    -0.953000000     0.787000000     0.073000000
H    -1.795000000     1.502000000     0.011000000
C     0.343000000     1.230000000     0.046000000
H     0.483000000     2.307000000     0.050000000
C     1.445000000     0.297000000     0.029000000
H     2.447000000     0.717000000     0.059000000
C     1.180000000    -1.034000000     0.047000000
C     2.348000000    -2.049000000    -0.075000000
O     2.116000000    -3.244000000    -0.061000000
O     3.474000000    -1.584000000    -0.355000000
O    -0.417000000     4.638000000    -0.675000000
H     0.525000000     4.736000000    -0.812000000
H    -0.698000000     5.485000000    -0.327000000
O    -3.935000000     1.346000000    -2.786000000
H    -4.609000000     1.492000000    -2.122000000
H    -3.295000000     2.041000000    -2.634000000
O    -5.556000000     2.756000000    -0.474000000
H    -5.779000000     2.083000000     0.168000000
H    -5.003000000     3.372000000     0.007000000
O     4.852000000     5.584000000    -0.939000000
H     4.372000000     4.770000000    -1.088000000
H     4.180000000     6.216000000    -0.686000000
O     3.573000000    -7.729000000     2.221000000
H     3.266000000    -6.857000000     1.975000000
H     2.991000000    -7.996000000     2.933000000
O    -0.665000000    -3.084000000    -4.651000000
H    -1.604000000    -3.267000000    -4.682000000
H    -0.564000000    -2.478000000    -3.918000000
O     3.789000000    -5.787000000    -2.171000000
H     2.873000000    -5.509000000    -2.155000000
H     3.860000000    -6.421000000    -1.457000000
O     4.844000000    -4.077000000     1.001000000
H     4.162000000    -4.433000000     1.570000000
H     4.415000000    -3.968000000     0.152000000
O     2.851000000    -4.691000000     3.174000000
H     2.901000000    -3.808000000     3.542000000
H     2.023000000    -4.703000000     2.694000000
O     4.736000000     0.689000000    -0.827000000
H     4.428000000    -0.214000000    -0.748000000
H     5.301000000     0.817000000    -0.065000000
O    -2.334000000     4.053000000     1.715000000
H    -2.024000000     4.369000000     2.563000000
H    -1.637000000     4.288000000     1.102000000
O     0.071000000     3.566000000    -4.617000000
H     0.166000000     2.664000000    -4.923000000
H     0.946000000     3.809000000    -4.312000000
O    -2.928000000    -3.990000000     1.348000000
H    -3.655000000    -3.369000000     1.352000000
H    -2.693000000    -4.090000000     2.271000000
O     1.125000000    -4.484000000    -2.211000000
H     0.242000000    -4.208000000    -2.456000000
H     1.514000000    -3.709000000    -1.804000000
O    -1.808000000    -5.421000000    -2.031000000
H    -2.738000000    -5.480000000    -2.249000000
H    -1.377000000    -5.997000000    -2.662000000
O    -0.402000000    -1.000000000    -2.919000000
H    -1.331000000    -0.973000000    -3.150000000
H    -0.331000000    -0.438000000    -2.147000000
O    -4.495000000     0.137000000     1.214000000
H    -3.739000000     0.468000000     1.699000000
H    -4.279000000    -0.777000000     1.027000000
O    -3.406000000    -3.018000000    -1.706000000
H    -2.789000000    -3.306000000    -1.033000000
H    -4.134000000    -3.637000000    -1.645000000
O     2.027000000     6.581000000    -0.069000000
H     1.969000000     7.352000000    -0.634000000
H     1.131000000     6.441000000     0.236000000
O     6.603000000     0.794000000     1.170000000
H     7.530000000     0.559000000     1.218000000
H     6.417000000     1.203000000     2.015000000
O     0.698000000     3.964000000     3.494000000
H     0.691000000     3.056000000     3.194000000
H    -0.031000000     4.018000000     4.112000000
O     4.394000000    -1.337000000     2.181000000
H     5.329000000    -1.331000000     2.388000000
H     4.360000000    -1.431000000     1.229000000
O    -2.387000000    -3.711000000     3.996000000
H    -1.824000000    -2.990000000     4.279000000
H    -3.207000000    -3.574000000     4.470000000
O     7.361000000    -1.678000000    -2.359000000
H     7.594000000    -1.786000000    -1.436000000
H     6.421000000    -1.854000000    -2.390000000
O    -2.981000000    -1.062000000    -3.467000000
H    -3.410000000    -0.245000000    -3.212000000
H    -3.289000000    -1.704000000    -2.827000000
O     4.282000000     3.171000000     1.821000000
H     3.931000000     2.335000000     2.128000000
H     4.002000000     3.227000000     0.908000000
O    -7.192000000     3.221000000    -2.827000000
H    -6.688000000     3.191000000    -2.014000000
H    -7.282000000     4.154000000    -3.020000000
O     3.576000000     1.048000000     3.256000000
H     3.970000000     0.945000000     4.122000000
H     3.569000000     0.163000000     2.889000000
O     1.473000000     6.514000000     2.908000000
H     1.106000000     5.647000000     3.084000000
H     2.398000000     6.350000000     2.725000000
O     7.243000000     1.517000000    -2.586000000
H     6.841000000     0.654000000    -2.683000000
H     6.710000000     1.956000000    -1.924000000
O     3.613000000     3.157000000    -0.940000000
H     3.389000000     3.362000000    -1.848000000
H     3.989000000     2.278000000    -0.978000000
O     0.254000000    -5.219000000     2.242000000
H    -0.279000000    -5.509000000     2.982000000
H    -0.382000000    -4.984000000     1.566000000
O     1.970000000    -6.065000000     0.142000000
H     1.351000000    -6.029000000     0.872000000
H     2.084000000    -5.151000000    -0.120000000
O    -5.318000000    -2.596000000     1.330000000
H    -6.072000000    -2.386000000     0.779000000
H    -5.679000000    -3.137000000     2.033000000
O     1.305000000    -7.723000000    -2.020000000
H     1.096000000    -6.800000000    -1.871000000
H     1.380000000    -8.096000000    -1.142000000
O    -2.779000000     1.055000000     4.042000000
H    -2.758000000     0.273000000     4.594000000
H    -1.869000000     1.185000000     3.777000000
O     4.220000000     0.041000000    -3.973000000
H     4.015000000    -0.886000000    -3.850000000
H     4.130000000     0.424000000    -3.100000000
O    -2.020000000     3.374000000    -2.588000000
H    -1.582000000     3.711000000    -1.807000000
H    -1.307000000     3.156000000    -3.188000000
O    -6.500000000     1.453000000     2.675000000
H    -6.192000000     0.579000000     2.434000000
H    -5.717000000     2.001000000     2.641000000
O    -3.016000000     6.103000000    -3.369000000
H    -3.219000000     5.223000000    -3.051000000
H    -2.109000000     6.046000000    -3.669000000
O    -4.598000000     3.030000000     3.511000000
H    -3.889000000     2.578000000     3.969000000
H    -4.162000000     3.504000000     2.803000000
O     7.370000000    -2.869000000     0.671000000
H     7.535000000    -2.118000000     1.240000000
H     6.463000000    -3.113000000     0.854000000
O    -1.683000000     5.544000000     4.208000000
H    -1.535000000     6.244000000     3.571000000
H    -2.305000000     5.917000000     4.832000000
O     2.870000000    -2.209000000     4.042000000
H     3.379000000    -1.766000000     3.363000000
H     2.477000000    -1.499000000     4.549000000
O    -2.501000000     2.010000000    -5.614000000
H    -3.006000000     2.486000000    -4.955000000
H    -2.254000000     1.192000000    -5.181000000
O     4.589000000    -2.447000000    -2.772000000
H     4.277000000    -2.163000000    -1.913000000
H     4.457000000    -3.396000000    -2.773000000
O     0.107000000     1.190000000     3.387000000
H     0.570000000     0.891000000     4.169000000
H     0.528000000     0.723000000     2.666000000
O    -2.595000000    -7.469000000     0.076000000
H    -3.219000000    -7.917000000    -0.494000000
H    -2.359000000    -6.675000000    -0.403000000
