158
-3053.47975
C     0.758000000    -0.845000000     0.967000000
H     1.356000000    -1.398000000     1.686000000
C    -0.553000000    -0.550000000     1.097000000
H    -1.105000000    -0.769000000     2.007000000
C    -1.221000000     0.179000000     0.178000000
H    -2.306000000     0.341000000     0.331000000
C    -0.549000000     0.693000000    -0.984000000
H    -1.086000000     1.246000000    -1.751000000
C     0.750000000     0.306000000    -1.171000000
H     1.320000000     0.742000000    -1.987000000
C     1.487000000    -0.312000000    -0.176000000
C     2.987000000    -0.599000000    -0.481000000
O     3.630000000    -0.998000000     0.452000000
O     3.516000000    -0.442000000    -1.588000000
O    -3.628000000    -0.344000000    -2.073000000
H    -4.487000000    -0.741000000    -1.930000000
H    -3.756000000     0.583000000    -1.872000000
O     5.727000000    -5.097000000     2.369000000
H     5.392000000    -4.391000000     1.816000000
H     4.978000000    -5.357000000     2.906000000
O    -4.930000000     1.174000000     2.072000000
H    -5.096000000     0.379000000     1.566000000
H    -4.479000000     0.867000000     2.859000000
O    -2.369000000     0.026000000    -4.702000000
H    -1.662000000    -0.616000000    -4.631000000
H    -2.900000000    -0.117000000    -3.918000000
O     3.043000000     4.032000000    -5.016000000
H     2.189000000     3.609000000    -4.934000000
H     2.840000000     4.957000000    -5.160000000
O    -6.215000000    -0.300000000    -1.188000000
H    -6.457000000    -1.189000000    -1.446000000
H    -5.896000000    -0.390000000    -0.290000000
O     2.570000000     2.029000000     3.090000000
H     3.357000000     2.413000000     2.703000000
H     1.851000000     2.368000000     2.557000000
O    -0.259000000    -4.265000000     0.790000000
H    -0.541000000    -4.418000000    -0.112000000
H     0.305000000    -5.010000000     0.994000000
O     8.113000000    -1.929000000    -1.604000000
H     7.527000000    -1.352000000    -2.095000000
H     7.721000000    -2.798000000    -1.691000000
O     1.089000000    -4.125000000     4.021000000
H     0.599000000    -4.444000000     3.263000000
H     0.753000000    -4.637000000     4.757000000
O     0.537000000     2.889000000    -4.811000000
H     0.824000000     2.035000000    -5.133000000
H    -0.396000000     2.776000000    -4.629000000
O    -3.582000000    -0.377000000     4.117000000
H    -2.668000000    -0.430000000     4.396000000
H    -3.835000000    -1.285000000     3.950000000
O     4.802000000     1.989000000    -2.218000000
H     4.213000000     1.646000000    -1.546000000
H     5.120000000     1.212000000    -2.677000000
O    -5.192000000     3.274000000     0.261000000
H    -5.186000000     2.549000000     0.885000000
H    -5.119000000     4.059000000     0.804000000
O     5.956000000    -0.854000000    -2.422000000
H     5.134000000    -0.753000000    -1.942000000
H     5.686000000    -1.049000000    -3.320000000
O     6.956000000    -0.422000000     3.527000000
H     7.088000000    -0.649000000     2.607000000
H     6.234000000    -0.982000000     3.811000000
O     3.542000000    -5.290000000     4.054000000
H     2.828000000    -4.653000000     4.043000000
H     3.370000000    -5.830000000     4.825000000
O     0.871000000     0.395000000    -5.934000000
H     0.419000000    -0.388000000    -6.247000000
H     1.603000000     0.058000000    -5.417000000
O    -3.424000000    -5.310000000     1.309000000
H    -2.768000000    -4.645000000     1.517000000
H    -3.483000000    -5.845000000     2.101000000
O    -0.827000000    -0.508000000     4.925000000
H    -0.677000000     0.437000000     4.965000000
H    -0.049000000    -0.891000000     5.330000000
O    -2.285000000     3.163000000    -4.153000000
H    -2.314000000     2.324000000    -4.614000000
H    -2.667000000     3.788000000    -4.770000000
O    -0.686000000     4.127000000    -2.061000000
H    -1.019000000     3.520000000    -2.721000000
H     0.159000000     3.760000000    -1.803000000
O    -3.634000000     5.588000000    -1.544000000
H    -3.869000000     5.275000000    -0.671000000
H    -4.422000000     6.030000000    -1.861000000
O     5.122000000    -3.035000000     0.355000000
H     4.552000000    -2.281000000     0.507000000
H     5.658000000    -2.782000000    -0.396000000
O     3.078000000    -0.551000000     3.255000000
H     2.757000000     0.351000000     3.278000000
H     3.496000000    -0.635000000     2.398000000
O    -5.518000000    -1.289000000     1.117000000
H    -5.795000000    -2.099000000     0.689000000
H    -4.922000000    -1.575000000     1.809000000
O     4.040000000    -1.536000000    -6.487000000
H     4.964000000    -1.587000000    -6.244000000
H     3.575000000    -1.475000000    -5.653000000
O    -3.759000000     2.265000000    -1.753000000
H    -3.399000000     3.027000000    -2.206000000
H    -4.367000000     2.633000000    -1.111000000
O    -4.526000000    -2.935000000     3.470000000
H    -3.651000000    -3.173000000     3.163000000
H    -4.767000000    -3.637000000     4.075000000
O     4.040000000     4.339000000    -0.112000000
H     4.770000000     4.533000000    -0.700000000
H     4.389000000     3.691000000     0.499000000
O    -0.725000000     2.279000000     5.137000000
H    -1.015000000     2.893000000     5.811000000
H    -1.204000000     2.542000000     4.351000000
O     7.931000000     1.566000000    -2.436000000
H     7.116000000     1.407000000    -1.960000000
H     8.603000000     1.597000000    -1.756000000
O     0.687000000     3.368000000     1.348000000
H     0.465000000     2.742000000     0.659000000
H    -0.132000000     3.498000000     1.827000000
O     1.602000000    -3.517000000    -3.584000000
H     1.638000000    -3.585000000    -2.630000000
H     1.837000000    -4.392000000    -3.895000000
O     7.814000000    -0.894000000     1.042000000
H     7.925000000    -1.466000000     0.283000000
H     8.698000000    -0.585000000     1.241000000
O    -3.246000000    -3.150000000    -1.818000000
H    -3.118000000    -2.234000000    -1.572000000
H    -2.523000000    -3.615000000    -1.398000000
O     2.002000000     3.830000000    -1.962000000
H     2.340000000     3.891000000    -2.855000000
H     2.776000000     3.664000000    -1.423000000
O     4.820000000     2.757000000     1.829000000
H     5.068000000     1.843000000     1.692000000
H     5.480000000     3.097000000     2.434000000
O    -1.921000000     3.692000000     2.993000000
H    -2.184000000     4.610000000     3.057000000
H    -2.365000000     3.370000000     2.208000000
O    -2.076000000     3.438000000     0.242000000
H    -1.438000000     3.734000000    -0.408000000
H    -2.790000000     3.065000000    -0.275000000
O    -7.935000000    -0.953000000     2.838000000
H    -8.190000000    -0.183000000     3.347000000
H    -7.073000000    -0.732000000     2.485000000
O     4.932000000    -2.320000000     4.364000000
H     4.633000000    -2.994000000     4.975000000
H     4.126000000    -1.938000000     4.017000000
O     1.520000000    -1.925000000     5.401000000
H     1.850000000    -1.441000000     4.644000000
H     1.256000000    -2.774000000     5.046000000
O     3.067000000    -4.324000000    -0.943000000
H     2.629000000    -4.759000000    -0.212000000
H     3.677000000    -3.714000000    -0.528000000
O    -1.047000000     6.559000000    -3.078000000
H    -1.955000000     6.649000000    -3.367000000
H    -1.040000000     5.759000000    -2.554000000
O    -1.713000000    -3.232000000     2.964000000
H    -1.158000000    -2.927000000     3.682000000
H    -1.101000000    -3.425000000     2.253000000
O     5.768000000     0.685000000     0.504000000
H     6.515000000     0.184000000     0.830000000
H     5.120000000     0.023000000     0.265000000
O     2.773000000    -1.117000000    -4.209000000
H     2.964000000    -0.834000000    -3.315000000
H     2.491000000    -2.027000000    -4.117000000
