158
-3043.54530
C     0.509000000    -0.941000000     1.015000000
H     0.978000000    -1.495000000     1.825000000
C    -0.487000000    -0.052000000     1.194000000
H    -1.049000000    -0.167000000     2.117000000
C    -1.000000000     0.724000000     0.161000000
H    -1.824000000     1.314000000     0.344000000
C    -0.311000000     0.755000000    -1.097000000
H    -0.717000000     1.454000000    -1.823000000
C     0.773000000    -0.156000000    -1.295000000
H     1.344000000    -0.184000000    -2.220000000
C     1.205000000    -0.918000000    -0.242000000
C     2.501000000    -1.688000000    -0.356000000
O     3.126000000    -2.067000000     0.635000000
O     3.022000000    -1.772000000    -1.472000000
O    -4.028000000     1.441000000    -3.208000000
H    -4.573000000     1.598000000    -3.979000000
H    -3.988000000     2.289000000    -2.766000000
O     1.192000000    -5.673000000     3.065000000
H     1.077000000    -6.586000000     2.802000000
H     1.170000000    -5.695000000     4.022000000
O     5.418000000    -5.520000000     3.200000000
H     5.388000000    -4.859000000     2.508000000
H     6.268000000    -5.946000000     3.087000000
O    -4.623000000     1.107000000     1.775000000
H    -4.867000000     0.368000000     1.217000000
H    -4.875000000     1.881000000     1.271000000
O    -6.202000000    -1.003000000    -0.536000000
H    -5.427000000    -1.265000000    -1.032000000
H    -6.070000000    -1.383000000     0.333000000
O     1.415000000     2.010000000     2.872000000
H     1.769000000     1.263000000     2.389000000
H     2.084000000     2.212000000     3.526000000
O    -1.429000000    -4.660000000     1.931000000
H    -1.496000000    -5.373000000     1.295000000
H    -0.622000000    -4.845000000     2.413000000
O     1.460000000     0.004000000     7.087000000
H     0.731000000    -0.224000000     7.663000000
H     1.049000000     0.196000000     6.245000000
O     3.873000000    -3.292000000    -5.898000000
H     4.121000000    -2.378000000    -6.034000000
H     3.744000000    -3.367000000    -4.952000000
O    -2.860000000    -2.360000000     4.838000000
H    -2.725000000    -2.834000000     5.659000000
H    -2.109000000    -2.600000000     4.296000000
O     1.092000000     1.827000000    -4.686000000
H     0.268000000     2.295000000    -4.817000000
H     1.513000000     2.283000000    -3.956000000
O    -3.922000000     2.128000000     4.465000000
H    -3.521000000     1.289000000     4.693000000
H    -3.877000000     2.163000000     3.509000000
O     4.087000000     0.392000000    -3.306000000
H     3.566000000     0.141000000    -4.069000000
H     3.697000000    -0.093000000    -2.579000000
O    -6.684000000     3.590000000     1.191000000
H    -6.481000000     3.082000000     1.976000000
H    -6.864000000     4.472000000     1.516000000
O     5.764000000    -2.094000000    -2.135000000
H     4.840000000    -1.915000000    -1.960000000
H     5.759000000    -2.603000000    -2.946000000
O     5.154000000    -1.191000000     4.761000000
H     5.741000000    -1.261000000     4.008000000
H     5.248000000    -2.028000000     5.216000000
O     2.485000000    -0.167000000    -5.597000000
H     1.978000000    -0.946000000    -5.365000000
H     1.961000000     0.565000000    -5.272000000
O     1.200000000    -5.594000000    -2.457000000
H     1.454000000    -5.193000000    -1.625000000
H     0.667000000    -6.348000000    -2.207000000
O    -2.059000000     0.198000000     5.515000000
H    -1.231000000     0.276000000     5.042000000
H    -2.366000000    -0.686000000     5.317000000
O    -1.581000000     2.805000000    -5.090000000
H    -2.325000000     2.224000000    -4.930000000
H    -1.734000000     3.153000000    -5.969000000
O    -0.789000000     4.349000000    -2.984000000
H    -1.166000000     3.664000000    -3.536000000
H     0.142000000     4.131000000    -2.934000000
O    -4.369000000     5.792000000    -0.939000000
H    -3.751000000     6.479000000    -1.187000000
H    -4.680000000     6.051000000    -0.072000000
O     4.818000000    -3.844000000     1.017000000
H     4.305000000    -3.067000000     0.796000000
H     4.753000000    -4.402000000     0.241000000
O     2.817000000    -1.049000000     3.152000000
H     3.595000000    -1.268000000     3.665000000
H     2.962000000    -1.470000000     2.305000000
O    -5.456000000    -2.854000000     1.551000000
H    -4.603000000    -2.651000000     1.165000000
H    -5.440000000    -2.425000000     2.406000000
O    -5.568000000     3.618000000    -2.127000000
H    -5.273000000     4.514000000    -1.967000000
H    -6.167000000     3.430000000    -1.404000000
O     4.745000000    -5.527000000    -1.112000000
H     4.959000000    -5.990000000    -1.922000000
H     4.137000000    -6.110000000    -0.657000000
O     2.449000000     4.956000000     0.490000000
H     3.060000000     4.232000000     0.357000000
H     1.600000000     4.533000000     0.620000000
O    -7.186000000     1.802000000     3.728000000
H    -7.474000000     1.750000000     4.640000000
H    -6.272000000     1.521000000     3.750000000
O    -1.829000000     4.427000000     4.676000000
H    -2.520000000     3.971000000     5.156000000
H    -1.807000000     3.997000000     3.821000000
O     7.209000000    -0.025000000    -1.204000000
H     6.963000000    -0.807000000    -1.699000000
H     6.692000000    -0.078000000    -0.400000000
O     0.109000000     3.783000000     0.946000000
H    -0.582000000     3.338000000     0.455000000
H     0.496000000     3.097000000     1.489000000
O    -1.386000000    -2.879000000    -1.692000000
H    -0.656000000    -2.744000000    -1.089000000
H    -1.532000000    -3.825000000    -1.684000000
O     6.596000000    -1.531000000     2.144000000
H     6.387000000    -2.321000000     1.645000000
H     7.550000000    -1.464000000     2.097000000
O     0.283000000    -2.113000000    -6.044000000
H     0.129000000    -3.047000000    -5.902000000
H    -0.393000000    -1.677000000    -5.525000000
O    -1.645000000    -1.507000000    -3.965000000
H    -2.185000000    -2.128000000    -4.454000000
H    -1.272000000    -2.025000000    -3.251000000
O    -3.989000000    -1.311000000    -2.584000000
H    -4.127000000    -0.367000000    -2.662000000
H    -3.037000000    -1.413000000    -2.560000000
O     2.099000000     3.881000000    -3.033000000
H     2.706000000     4.599000000    -3.216000000
H     2.489000000     3.422000000    -2.288000000
O     4.417000000     2.861000000     0.397000000
H     4.527000000     1.911000000     0.356000000
H     4.931000000     3.128000000     1.159000000
O    -3.031000000     3.880000000     2.171000000
H    -3.840000000     4.391000000     2.132000000
H    -2.893000000     3.581000000     1.273000000
O    -8.057000000     0.995000000    -1.820000000
H    -7.294000000     0.590000000    -1.407000000
H    -8.358000000     0.346000000    -2.455000000
O    -2.646000000     3.622000000    -0.916000000
H    -3.290000000     4.316000000    -0.778000000
H    -2.123000000     3.924000000    -1.659000000
O     0.533000000     0.036000000     4.390000000
H     0.279000000     0.835000000     3.927000000
H     1.199000000    -0.364000000     3.830000000
O     1.835000000    -4.746000000     0.081000000
H     1.636000000    -4.972000000     0.990000000
H     2.389000000    -3.968000000     0.144000000
O    -1.466000000     6.223000000     1.741000000
H    -1.303000000     5.292000000     1.592000000
H    -1.843000000     6.263000000     2.620000000
O    -2.478000000    -2.212000000     1.518000000
H    -1.712000000    -1.644000000     1.442000000
H    -2.116000000    -3.080000000     1.696000000
O     4.900000000     0.320000000     0.844000000
H     5.614000000     0.093000000     1.440000000
H     4.352000000    -0.465000000     0.817000000
O     3.117000000    -3.665000000    -3.277000000
H     3.218000000    -3.024000000    -2.573000000
H     2.579000000    -4.358000000    -2.894000000
