158
-3023.91365
C    -1.342000000    -0.300000000     0.667000000
H    -2.379000000    -0.412000000     0.975000000
C    -0.888000000     0.943000000     0.292000000
H    -1.567000000     1.787000000     0.391000000
C     0.350000000     1.116000000    -0.279000000
H     0.738000000     2.142000000    -0.450000000
C     1.211000000     0.069000000    -0.491000000
H     2.200000000     0.256000000    -0.903000000
C     0.819000000    -1.179000000    -0.126000000
H     1.462000000    -2.050000000    -0.223000000
C    -0.469000000    -1.395000000     0.463000000
C    -0.944000000    -2.861000000     0.631000000
O    -2.036000000    -3.051000000     1.138000000
O    -0.202000000    -3.781000000     0.411000000
O    -6.303000000     0.646000000    -2.011000000
H    -5.445000000     0.598000000    -2.433000000
H    -6.441000000    -0.229000000    -1.648000000
O    -1.734000000    -7.490000000     4.284000000
H    -0.921000000    -7.883000000     3.965000000
H    -1.739000000    -6.610000000     3.908000000
O     2.390000000    -6.813000000    -1.995000000
H     1.894000000    -6.006000000    -1.862000000
H     1.760000000    -7.513000000    -1.827000000
O     4.357000000    -2.865000000    -0.941000000
H     3.687000000    -3.349000000    -0.459000000
H     4.147000000    -3.020000000    -1.863000000
O     0.533000000     0.802000000    -5.495000000
H     0.073000000     1.519000000    -5.059000000
H    -0.080000000     0.495000000    -6.163000000
O    -2.339000000     0.322000000     3.608000000
H    -1.602000000    -0.084000000     4.063000000
H    -2.376000000     1.212000000     3.958000000
O    -0.490000000     7.579000000    -0.452000000
H     0.099000000     7.556000000    -1.206000000
H     0.089000000     7.699000000     0.301000000
O     2.681000000     2.664000000    -3.051000000
H     2.575000000     3.613000000    -2.975000000
H     1.908000000     2.375000000    -3.534000000
O     2.629000000     5.271000000    -1.617000000
H     1.751000000     5.249000000    -1.997000000
H     3.083000000     5.959000000    -2.104000000
O     0.836000000    -7.736000000     1.380000000
H     0.208000000    -7.617000000     0.667000000
H     1.661000000    -7.942000000     0.940000000
O     0.980000000    -4.521000000    -2.488000000
H     1.063000000    -4.024000000    -1.674000000
H     0.339000000    -4.031000000    -3.003000000
O     0.293000000     4.985000000    -3.165000000
H     0.231000000     5.308000000    -4.064000000
H    -0.310000000     5.540000000    -2.669000000
O    -4.544000000    -5.780000000     2.008000000
H    -5.185000000    -5.283000000     2.516000000
H    -3.713000000    -5.334000000     2.171000000
O    -6.283000000    -2.421000000    -1.450000000
H    -7.039000000    -2.626000000    -0.900000000
H    -5.539000000    -2.808000000    -0.988000000
O    -5.273000000     0.818000000     2.120000000
H    -6.087000000     1.198000000     1.791000000
H    -4.670000000     1.559000000     2.181000000
O    -2.440000000     6.426000000     0.826000000
H    -3.251000000     6.428000000     0.319000000
H    -1.795000000     6.838000000     0.250000000
O    -5.352000000     3.316000000    -2.329000000
H    -5.852000000     3.408000000    -3.140000000
H    -4.696000000     2.647000000    -2.527000000
O     2.709000000     5.246000000     0.937000000
H     2.708000000     5.371000000    -0.012000000
H     2.740000000     4.296000000     1.052000000
O    -1.750000000    -5.147000000     2.694000000
H    -1.762000000    -4.671000000     1.863000000
H    -0.962000000    -4.835000000     3.137000000
O    -2.549000000    -8.296000000     0.863000000
H    -1.980000000    -7.610000000     0.513000000
H    -3.121000000    -7.841000000     1.481000000
O    -3.995000000    -4.510000000     4.544000000
H    -3.731000000    -3.601000000     4.404000000
H    -3.290000000    -5.026000000     4.152000000
O     3.520000000    -2.828000000    -4.712000000
H     2.945000000    -2.530000000    -4.007000000
H     3.079000000    -2.551000000    -5.515000000
O     0.748000000    -4.865000000     4.207000000
H     1.177000000    -4.160000000     3.722000000
H     0.753000000    -4.567000000     5.117000000
O    -0.516000000     5.183000000     2.403000000
H    -1.111000000     5.329000000     1.668000000
H    -0.459000000     6.033000000     2.839000000
O     5.753000000     2.598000000    -1.059000000
H     6.520000000     2.582000000    -0.486000000
H     5.014000000     2.426000000    -0.475000000
O     1.571000000     5.112000000     5.149000000
H     1.227000000     5.145000000     4.257000000
H     0.856000000     5.444000000     5.693000000
O    -3.311000000    -3.939000000    -0.895000000
H    -3.659000000    -4.760000000    -0.545000000
H    -2.837000000    -3.549000000    -0.161000000
O     1.337000000    -1.501000000    -3.750000000
H     1.162000000    -0.874000000    -4.452000000
H     0.629000000    -1.362000000    -3.122000000
O    -4.868000000    -6.767000000    -0.600000000
H    -5.816000000    -6.636000000    -0.620000000
H    -4.620000000    -6.587000000     0.307000000
O    -4.781000000     3.212000000     0.766000000
H    -5.482000000     3.863000000     0.748000000
H    -4.918000000     2.690000000    -0.025000000
O     1.354000000     2.861000000     2.029000000
H     0.727000000     3.570000000     2.176000000
H     0.862000000     2.063000000     2.223000000
O     1.374000000     7.532000000     1.853000000
H     1.640000000     6.651000000     1.590000000
H     1.120000000     7.441000000     2.772000000
O    -0.574000000     2.511000000    -3.650000000
H    -0.289000000     3.305000000    -3.198000000
H    -1.280000000     2.805000000    -4.226000000
O    -5.939000000    -1.774000000     2.679000000
H    -5.058000000    -2.057000000     2.922000000
H    -5.910000000    -0.819000000     2.743000000
O     7.142000000     0.141000000    -2.938000000
H     6.441000000     0.792000000    -2.946000000
H     6.889000000    -0.492000000    -3.610000000
O    -1.794000000    -4.215000000    -2.992000000
H    -2.199000000    -3.469000000    -3.434000000
H    -2.103000000    -4.155000000    -2.088000000
O    -0.246000000    -1.322000000     4.796000000
H     0.584000000    -1.735000000     4.557000000
H    -0.805000000    -2.050000000     5.069000000
O     4.633000000    -1.858000000     2.193000000
H     5.018000000    -1.482000000     1.401000000
H     4.927000000    -2.769000000     2.192000000
O     2.260000000    -2.689000000     3.819000000
H     2.938000000    -3.292000000     4.123000000
H     2.708000000    -2.120000000     3.193000000
O     3.947000000     2.302000000     1.097000000
H     4.251000000     2.782000000     1.866000000
H     2.998000000     2.424000000     1.098000000
O     2.383000000    -4.325000000     0.510000000
H     2.587000000    -4.444000000     1.438000000
H     1.453000000    -4.100000000     0.497000000
O    -3.737000000     1.018000000    -3.019000000
H    -3.503000000     1.270000000    -3.913000000
H    -2.951000000     0.595000000    -2.676000000
O     5.450000000    -0.440000000    -0.215000000
H     5.078000000     0.419000000    -0.416000000
H     4.944000000    -1.051000000    -0.750000000
O    -2.316000000     6.416000000    -3.230000000
H    -2.171000000     7.241000000    -3.693000000
H    -3.172000000     6.117000000    -3.535000000
O    -3.346000000    -2.051000000     3.431000000
H    -2.925000000    -2.413000000     2.651000000
H    -3.087000000    -1.130000000     3.436000000
O    -0.990000000    -0.041000000    -2.773000000
H    -0.733000000     0.834000000    -3.063000000
H    -0.968000000     0.006000000    -1.818000000
O    -2.658000000     3.160000000     3.453000000
H    -3.239000000     3.390000000     2.728000000
H    -1.881000000     3.702000000     3.319000000
O    -0.912000000    -6.058000000    -0.465000000
H    -0.361000000    -6.157000000    -1.241000000
H    -0.554000000    -5.295000000    -0.011000000
