158
-2999.20358
C    -1.087000000    -1.027000000    -0.098000000
H    -1.925000000    -1.707000000     0.032000000
C    -1.239000000     0.419000000     0.010000000
H    -2.247000000     0.804000000     0.142000000
C    -0.166000000     1.242000000     0.033000000
H    -0.290000000     2.308000000     0.075000000
C     1.062000000     0.707000000     0.042000000
H     2.009000000     1.224000000    -0.091000000
C     1.273000000    -0.685000000    -0.036000000
H     2.259000000    -1.125000000     0.086000000
C     0.198000000    -1.579000000    -0.144000000
C     0.444000000    -2.988000000     0.147000000
O    -0.448000000    -3.813000000     0.433000000
O     1.502000000    -3.425000000    -0.111000000
O    -3.222000000    -6.205000000     2.863000000
H    -2.407000000    -6.105000000     2.371000000
H    -3.262000000    -7.138000000     3.071000000
O     3.164000000    -6.453000000    -4.102000000
H     2.662000000    -6.039000000    -3.400000000
H     2.624000000    -6.335000000    -4.884000000
O     2.135000000     3.832000000     3.930000000
H     1.979000000     3.088000000     4.511000000
H     1.371000000     3.849000000     3.352000000
O     4.104000000    -4.853000000     0.829000000
H     4.498000000    -5.695000000     0.601000000
H     3.214000000    -4.902000000     0.481000000
O    -0.835000000     0.063000000     2.922000000
H    -0.002000000    -0.354000000     3.140000000
H    -0.694000000     0.439000000     2.053000000
O    -3.224000000     6.078000000     3.751000000
H    -4.003000000     5.697000000     4.156000000
H    -3.205000000     5.703000000     2.871000000
O     1.320000000     3.065000000    -4.451000000
H     0.431000000     3.266000000    -4.158000000
H     1.332000000     2.112000000    -4.542000000
O    -1.118000000     4.235000000    -4.307000000
H    -0.862000000     4.745000000    -3.539000000
H    -1.883000000     4.693000000    -4.654000000
O     1.057000000    -5.025000000    -2.515000000
H     0.516000000    -5.510000000    -1.892000000
H     0.583000000    -4.206000000    -2.657000000
O    -0.142000000    -7.364000000     4.285000000
H    -0.445000000    -6.533000000     3.919000000
H     0.002000000    -7.923000000     3.522000000
O    -0.716000000     6.246000000    -2.347000000
H    -0.570000000     7.188000000    -2.263000000
H    -1.657000000     6.135000000    -2.213000000
O    -3.956000000    -1.933000000    -3.003000000
H    -4.517000000    -1.868000000    -2.230000000
H    -3.110000000    -2.220000000    -2.661000000
O    -3.415000000     0.081000000     3.711000000
H    -3.755000000     0.974000000     3.664000000
H    -2.592000000     0.111000000     3.223000000
O    -5.804000000     0.071000000     1.941000000
H    -5.835000000     0.611000000     2.730000000
H    -6.536000000    -0.538000000     2.038000000
O     2.835000000     5.602000000     1.727000000
H     2.105000000     5.621000000     1.108000000
H     2.521000000     5.059000000     2.451000000
O     0.128000000    -5.237000000     2.609000000
H    -0.175000000    -4.852000000     1.787000000
H     0.820000000    -4.647000000     2.908000000
O    -1.583000000    -7.870000000    -0.111000000
H    -1.395000000    -8.641000000    -0.646000000
H    -0.721000000    -7.523000000     0.120000000
O    -2.353000000    -3.597000000     5.210000000
H    -2.454000000    -3.310000000     4.302000000
H    -1.600000000    -3.104000000     5.535000000
O     3.001000000     3.094000000    -1.998000000
H     3.110000000     3.998000000    -1.703000000
H     2.458000000     3.162000000    -2.784000000
O     1.736000000    -2.861000000     3.124000000
H     1.798000000    -1.969000000     3.465000000
H     2.258000000    -2.848000000     2.322000000
O    -1.764000000     7.232000000     0.389000000
H    -1.675000000     7.963000000    -0.222000000
H    -1.370000000     7.548000000     1.202000000
O    -3.431000000     2.120000000    -5.426000000
H    -4.267000000     2.304000000    -4.998000000
H    -2.805000000     2.697000000    -4.988000000
O    -0.178000000     4.144000000     2.632000000
H    -0.633000000     4.116000000     1.791000000
H    -0.072000000     5.078000000     2.817000000
O    -2.049000000    -3.958000000    -1.757000000
H    -2.636000000    -4.713000000    -1.723000000
H    -1.563000000    -3.996000000    -0.933000000
O    -1.540000000     2.604000000     4.494000000
H    -1.051000000     3.194000000     3.920000000
H    -2.379000000     2.479000000     4.051000000
O    -6.117000000    -1.878000000    -0.356000000
H    -6.254000000    -2.216000000     0.529000000
H    -6.189000000    -2.648000000    -0.920000000
O     4.825000000    -1.201000000    -3.510000000
H     5.343000000    -1.705000000    -4.138000000
H     4.384000000    -1.863000000    -2.978000000
O     4.539000000     5.830000000    -0.484000000
H     3.953000000     5.877000000     0.271000000
H     4.426000000     6.671000000    -0.928000000
O     3.808000000     0.877000000     2.250000000
H     3.715000000     1.408000000     1.459000000
H     4.005000000    -0.002000000     1.927000000
O    -3.436000000     2.982000000    -1.739000000
H    -3.943000000     2.281000000    -1.329000000
H    -3.739000000     2.998000000    -2.646000000
O    -3.997000000     2.767000000     3.478000000
H    -4.789000000     2.867000000     4.007000000
H    -4.277000000     2.971000000     2.586000000
O     2.693000000    -7.643000000    -1.541000000
H     2.529000000    -7.731000000    -2.480000000
H     2.222000000    -6.848000000    -1.290000000
O     1.779000000     6.030000000    -4.117000000
H     1.703000000     5.435000000    -4.862000000
H     1.113000000     5.727000000    -3.499000000
O     1.196000000     5.319000000    -0.500000000
H     1.087000000     4.370000000    -0.437000000
H     0.352000000     5.636000000    -0.822000000
O    -4.880000000    -2.353000000     2.375000000
H    -3.964000000    -2.585000000     2.220000000
H    -4.916000000    -1.409000000     2.225000000
O    -4.703000000     3.859000000     1.087000000
H    -3.858000000     3.844000000     0.638000000
H    -5.158000000     4.615000000     0.716000000
O     4.836000000    -1.431000000     0.933000000
H     5.565000000    -1.149000000     0.381000000
H     5.205000000    -2.121000000     1.484000000
O     1.937000000    -0.091000000     3.859000000
H     1.831000000     0.478000000     4.622000000
H     2.520000000     0.397000000     3.276000000
O     4.917000000     3.363000000     3.348000000
H     4.944000000     2.711000000     2.648000000
H     3.995000000     3.612000000     3.409000000
O     4.853000000     2.705000000     0.488000000
H     5.626000000     3.269000000     0.491000000
H     4.450000000     2.854000000    -0.367000000
O     3.563000000    -3.682000000    -1.791000000
H     3.663000000    -3.419000000    -0.876000000
H     2.618000000    -3.782000000    -1.910000000
O    -4.703000000     1.303000000    -0.167000000
H    -5.081000000     0.670000000     0.444000000
H    -5.032000000     2.150000000     0.132000000
O     4.380000000     1.494000000    -4.001000000
H     4.083000000     1.837000000    -3.159000000
H     4.114000000     0.575000000    -3.993000000
O    -3.414000000     6.003000000    -2.481000000
H    -3.543000000     5.961000000    -3.428000000
H    -4.146000000     6.531000000    -2.163000000
O    -2.119000000    -2.523000000     2.568000000
H    -1.845000000    -2.987000000     1.777000000
H    -1.780000000    -1.635000000     2.455000000
O     0.014000000     0.324000000    -3.327000000
H     0.450000000    -0.247000000    -2.694000000
H    -0.792000000     0.595000000    -2.888000000
O    -1.815000000     4.249000000     0.240000000
H    -2.145000000     3.719000000    -0.485000000
H    -2.100000000     5.140000000     0.035000000
O     1.298000000    -6.151000000     0.172000000
H     1.252000000    -5.204000000     0.041000000
H     1.367000000    -6.258000000     1.121000000
