158
-3059.86536
C    -0.296000000    -1.448000000     0.137000000
H    -0.741000000    -2.434000000     0.253000000
C    -1.212000000    -0.454000000    -0.204000000
H    -2.245000000    -0.728000000    -0.406000000
C    -0.788000000     0.862000000    -0.312000000
H    -1.501000000     1.701000000    -0.500000000
C     0.507000000     1.208000000    -0.080000000
H     0.825000000     2.245000000    -0.151000000
C     1.418000000     0.187000000     0.305000000
H     2.430000000     0.504000000     0.542000000
C     1.054000000    -1.166000000     0.385000000
C     2.016000000    -2.139000000     0.894000000
O     1.815000000    -3.376000000     0.643000000
O     2.792000000    -1.825000000     1.771000000
O     5.863000000    -3.305000000     2.914000000
H     5.530000000    -3.823000000     2.182000000
H     5.078000000    -2.996000000     3.366000000
O     2.857000000    -3.359000000     4.052000000
H     2.849000000    -3.057000000     3.144000000
H     2.451000000    -2.646000000     4.545000000
O     1.517000000     2.743000000    -4.383000000
H     1.245000000     2.772000000    -5.300000000
H     0.803000000     2.288000000    -3.936000000
O    -1.606000000    -6.701000000     1.132000000
H    -1.896000000    -5.908000000     1.583000000
H    -0.813000000    -6.435000000     0.667000000
O    -4.086000000    -4.207000000    -0.826000000
H    -4.434000000    -4.819000000    -0.177000000
H    -3.257000000    -4.598000000    -1.103000000
O     4.125000000    -1.795000000    -2.040000000
H     3.915000000    -1.109000000    -2.674000000
H     4.496000000    -1.324000000    -1.293000000
O    -4.478000000    -2.684000000     1.433000000
H    -5.392000000    -2.465000000     1.612000000
H    -4.450000000    -2.844000000     0.490000000
O     3.137000000     1.254000000    -1.940000000
H     2.368000000     1.719000000    -2.271000000
H     3.581000000     0.936000000    -2.727000000
O     0.448000000    -1.298000000    -3.548000000
H     0.123000000    -0.410000000    -3.698000000
H     1.089000000    -1.440000000    -4.244000000
O     4.889000000    -0.424000000     3.777000000
H     5.718000000    -0.136000000     3.394000000
H     4.495000000    -0.980000000     3.104000000
O    -4.592000000    -1.416000000    -1.213000000
H    -4.966000000    -2.296000000    -1.258000000
H    -5.292000000    -0.843000000    -1.525000000
O     1.778000000     3.775000000     2.584000000
H     2.318000000     4.102000000     1.865000000
H     2.403000000     3.377000000     3.191000000
O     2.556000000    -0.499000000     5.348000000
H     3.424000000    -0.241000000     5.039000000
H     1.991000000    -0.407000000     4.581000000
O    -2.798000000     3.033000000    -4.806000000
H    -3.014000000     2.984000000    -3.875000000
H    -2.288000000     3.839000000    -4.891000000
O     0.213000000    -5.435000000    -0.517000000
H     0.886000000    -5.838000000    -1.066000000
H     0.681000000    -4.768000000    -0.015000000
O     2.904000000    -5.937000000    -0.973000000
H     3.780000000    -5.561000000    -1.055000000
H     2.849000000    -6.573000000    -1.687000000
O     1.625000000    -3.476000000    -2.148000000
H     1.308000000    -2.609000000    -2.404000000
H     1.583000000    -3.474000000    -1.192000000
O     0.621000000    -4.603000000     5.432000000
H     1.504000000    -4.331000000     5.682000000
H     0.640000000    -4.632000000     4.476000000
O    -0.594000000     1.302000000    -3.157000000
H    -0.770000000     1.436000000    -2.225000000
H    -1.384000000     0.875000000    -3.490000000
O    -1.962000000    -5.639000000    -2.260000000
H    -1.219000000    -5.827000000    -1.686000000
H    -1.672000000    -5.918000000    -3.128000000
O    -3.534000000     2.622000000    -1.552000000
H    -3.869000000     2.395000000    -0.685000000
H    -3.607000000     1.812000000    -2.057000000
O    -3.878000000     7.579000000    -0.973000000
H    -3.568000000     6.884000000    -0.393000000
H    -3.114000000     8.141000000    -1.104000000
O    -5.133000000     4.900000000     2.662000000
H    -5.466000000     5.104000000     3.536000000
H    -5.684000000     4.178000000     2.360000000
O     3.606000000     4.821000000     0.335000000
H     3.759000000     5.672000000     0.747000000
H     3.277000000     5.034000000    -0.538000000
O     0.944000000     0.308000000     3.381000000
H     0.955000000     0.244000000     2.426000000
H     0.193000000     0.868000000     3.575000000
O     2.257000000    -6.767000000     1.992000000
H     2.434000000    -6.643000000     1.059000000
H     1.571000000    -6.131000000     2.192000000
O    -2.810000000     5.103000000    -2.500000000
H    -3.044000000     4.394000000    -1.901000000
H    -1.906000000     5.319000000    -2.274000000
O     0.498000000    -4.822000000     2.538000000
H    -0.303000000    -4.299000000     2.560000000
H     1.137000000    -4.264000000     2.095000000
O    -3.340000000    -5.287000000     2.761000000
H    -3.115000000    -4.966000000     3.635000000
H    -3.486000000    -4.494000000     2.245000000
O    -4.297000000     1.890000000     1.048000000
H    -4.968000000     2.459000000     1.424000000
H    -4.268000000     1.133000000     1.633000000
O    -3.674000000    -0.394000000     2.513000000
H    -4.053000000    -0.353000000     3.391000000
H    -3.702000000    -1.323000000     2.283000000
O     5.639000000     3.167000000     1.458000000
H     4.891000000     3.572000000     1.019000000
H     6.320000000     3.839000000     1.438000000
O     5.040000000    -4.389000000    -1.661000000
H     5.630000000    -4.305000000    -0.912000000
H     4.456000000    -3.633000000    -1.592000000
O    -1.596000000    -2.780000000     3.121000000
H    -1.706000000    -2.082000000     2.474000000
H    -2.254000000    -2.592000000     3.790000000
O    -1.796000000    -3.174000000    -3.695000000
H    -1.704000000    -3.970000000    -3.172000000
H    -1.022000000    -2.654000000    -3.479000000
O     7.058000000     0.892000000     0.899000000
H     6.507000000     0.110000000     0.868000000
H     6.477000000     1.582000000     1.219000000
O    -2.997000000     5.786000000     1.066000000
H    -2.415000000     5.074000000     1.333000000
H    -3.860000000     5.521000000     1.383000000
O     2.690000000    -4.242000000    -4.432000000
H     3.636000000    -4.141000000    -4.322000000
H     2.338000000    -4.179000000    -3.545000000
O    -6.480000000     0.307000000    -2.148000000
H    -6.667000000     0.196000000    -3.080000000
H    -6.775000000     1.195000000    -1.949000000
O    -0.006000000     5.262000000    -2.601000000
H     0.592000000     6.003000000    -2.502000000
H     0.518000000     4.588000000    -3.034000000
O    -1.553000000     1.606000000     2.572000000
H    -0.976000000     1.445000000     1.825000000
H    -2.421000000     1.345000000     2.265000000
O    -2.378000000     1.355000000     5.271000000
H    -2.051000000     1.412000000     4.373000000
H    -1.726000000     1.823000000     5.793000000
O     6.023000000     1.643000000    -1.889000000
H     6.407000000     1.353000000    -1.061000000
H     5.139000000     1.927000000    -1.655000000
O     3.793000000     2.414000000     3.844000000
H     4.564000000     2.215000000     3.312000000
H     3.591000000     1.591000000     4.289000000
O     5.098000000    -1.447000000     0.600000000
H     4.332000000    -1.730000000     1.100000000
H     5.637000000    -2.234000000     0.524000000
O    -1.222000000     4.260000000     2.861000000
H    -1.616000000     3.392000000     2.773000000
H    -0.289000000     4.087000000     2.988000000
O     4.220000000    -4.389000000     1.148000000
H     3.452000000    -3.851000000     0.954000000
H     3.915000000    -5.290000000     1.041000000
O    -3.168000000     0.211000000    -3.154000000
H    -3.811000000     0.107000000    -3.856000000
H    -3.504000000    -0.331000000    -2.440000000
