158
-3040.44936
C    -0.016000000     1.395000000     0.381000000
H    -0.243000000     2.406000000     0.709000000
C    -0.661000000     0.827000000    -0.678000000
H    -1.301000000     1.483000000    -1.261000000
C    -0.578000000    -0.530000000    -0.982000000
H    -1.189000000    -0.944000000    -1.805000000
C     0.268000000    -1.332000000    -0.210000000
H     0.274000000    -2.395000000    -0.434000000
C     0.912000000    -0.745000000     0.884000000
H     1.416000000    -1.432000000     1.559000000
C     0.773000000     0.626000000     1.196000000
C     1.450000000     1.312000000     2.408000000
O     1.079000000     2.456000000     2.683000000
O     2.434000000     0.856000000     2.910000000
O    -0.037000000     6.787000000     0.120000000
H    -0.981000000     6.663000000     0.026000000
H     0.226000000     6.136000000     0.771000000
O     0.838000000    -3.292000000    -3.687000000
H     1.016000000    -3.647000000    -2.817000000
H     0.389000000    -4.000000000    -4.148000000
O    -3.405000000     2.702000000     1.597000000
H    -3.937000000     3.243000000     2.180000000
H    -3.096000000     1.985000000     2.150000000
O     0.879000000    -6.028000000     0.993000000
H     1.652000000    -6.557000000     0.797000000
H     0.160000000    -6.658000000     1.031000000
O    -3.141000000    -1.939000000    -3.361000000
H    -3.702000000    -1.226000000    -3.056000000
H    -2.485000000    -1.509000000    -3.911000000
O     2.661000000    -4.401000000     3.771000000
H     2.080000000    -4.806000000     3.127000000
H     2.083000000    -4.157000000     4.494000000
O     2.886000000     0.758000000    -1.383000000
H     3.354000000     0.989000000    -0.581000000
H     2.040000000     0.428000000    -1.081000000
O     0.835000000     2.517000000    -4.923000000
H     0.611000000     2.591000000    -3.996000000
H     0.140000000     1.975000000    -5.295000000
O    -0.372000000     1.682000000     4.775000000
H     0.060000000     2.200000000     4.095000000
H     0.317000000     1.108000000     5.111000000
O    -0.722000000    -1.827000000     3.617000000
H     0.125000000    -1.517000000     3.937000000
H    -0.508000000    -2.576000000     3.061000000
O    -0.838000000    -5.887000000    -5.270000000
H    -1.553000000    -5.729000000    -4.653000000
H    -0.851000000    -6.833000000    -5.414000000
O     2.760000000     2.850000000     4.952000000
H     2.596000000     2.695000000     4.021000000
H     3.670000000     2.584000000     5.082000000
O    -5.633000000    -5.151000000    -2.743000000
H    -4.874000000    -4.659000000    -3.057000000
H    -5.929000000    -4.668000000    -1.971000000
O    -2.777000000     5.801000000    -0.353000000
H    -3.621000000     5.371000000    -0.218000000
H    -2.459000000     5.449000000    -1.184000000
O     4.067000000    -3.641000000    -0.236000000
H     4.075000000    -2.732000000    -0.535000000
H     4.594000000    -3.635000000     0.562000000
O     0.643000000     3.610000000    -1.861000000
H     1.499000000     3.619000000    -2.290000000
H     0.829000000     3.840000000    -0.951000000
O    -2.805000000     0.139000000     2.882000000
H    -2.647000000    -0.548000000     2.235000000
H    -1.998000000     0.174000000     3.396000000
O    -2.316000000     3.256000000     5.285000000
H    -1.627000000     2.599000000     5.191000000
H    -3.132000000     2.763000000     5.199000000
O    -5.199000000    -0.671000000    -2.093000000
H    -5.283000000     0.216000000    -1.742000000
H    -5.793000000    -0.688000000    -2.843000000
O    -2.651000000    -1.712000000     0.745000000
H    -2.303000000    -1.093000000     0.102000000
H    -2.691000000    -2.546000000     0.277000000
O     3.992000000     1.735000000     0.734000000
H     4.629000000     2.348000000     1.100000000
H     3.481000000     1.441000000     1.488000000
O     1.565000000     2.208000000     7.560000000
H     1.146000000     3.055000000     7.714000000
H     1.968000000     2.293000000     6.696000000
O     5.108000000    -4.038000000     2.636000000
H     5.558000000    -3.272000000     2.991000000
H     4.253000000    -4.034000000     3.068000000
O    -0.889000000    -1.278000000    -4.453000000
H    -0.092000000    -1.754000000    -4.218000000
H    -0.604000000    -0.642000000    -5.109000000
O     1.674000000    -0.865000000     4.833000000
H     1.900000000    -0.935000000     5.761000000
H     2.265000000    -0.194000000     4.493000000
O     0.700000000     5.038000000     2.003000000
H     0.412000000     5.415000000     2.834000000
H     0.689000000     4.093000000     2.152000000
O    -1.844000000     4.592000000    -2.683000000
H    -1.589000000     5.508000000    -2.785000000
H    -1.109000000     4.189000000    -2.221000000
O     1.706000000    -4.608000000    -1.245000000
H     1.550000000    -5.050000000    -0.410000000
H     2.522000000    -4.126000000    -1.112000000
O     3.648000000     5.404000000     6.401000000
H     3.119000000     4.752000000     5.940000000
H     4.275000000     5.711000000     5.745000000
O    -4.764000000     1.799000000    -0.897000000
H    -5.394000000     2.452000000    -0.591000000
H    -4.101000000     1.765000000    -0.207000000
O    -5.992000000    -3.181000000    -0.971000000
H    -5.524000000    -2.366000000    -1.155000000
H    -5.796000000    -3.368000000    -0.053000000
O    -4.140000000    -6.062000000    -0.137000000
H    -3.924000000    -5.207000000    -0.510000000
H    -3.746000000    -6.693000000    -0.740000000
O    -0.849000000     0.988000000    -6.112000000
H    -0.681000000     0.442000000    -6.881000000
H    -1.751000000     0.783000000    -5.866000000
O     5.365000000    -0.119000000     4.929000000
H     4.990000000    -0.590000000     4.185000000
H     5.678000000     0.706000000     4.557000000
O     0.820000000     5.145000000     5.659000000
H     0.333000000     4.549000000     5.090000000
H     0.759000000     5.995000000     5.223000000
O     3.575000000     5.100000000     1.866000000
H     2.924000000     4.417000000     2.029000000
H     3.958000000     4.869000000     1.020000000
O    -5.447000000    -0.427000000     1.379000000
H    -4.672000000    -0.008000000     1.755000000
H    -5.212000000    -1.352000000     1.317000000
O    -0.061000000    -4.231000000     2.680000000
H    -0.392000000    -4.904000000     3.276000000
H     0.256000000    -4.719000000     1.920000000
O     5.425000000     2.370000000     3.667000000
H     5.917000000     2.388000000     2.846000000
H     6.093000000     2.453000000     4.348000000
O     3.118000000    -1.875000000    -2.362000000
H     2.327000000    -2.056000000    -2.869000000
H     2.926000000    -1.057000000    -1.903000000
O    -0.781000000    -5.333000000    -2.015000000
H    -1.043000000    -6.205000000    -1.720000000
H     0.160000000    -5.295000000    -1.844000000
O    -3.562000000     2.441000000    -3.343000000
H    -3.039000000     3.218000000    -3.146000000
H    -3.948000000     2.192000000    -2.504000000
O    -3.700000000     1.092000000    -5.899000000
H    -3.765000000     1.289000000    -4.965000000
H    -4.008000000     1.888000000    -6.334000000
O    -2.906000000    -2.956000000    -5.855000000
H    -2.752000000    -2.618000000    -4.972000000
H    -2.033000000    -3.166000000    -6.186000000
O    -2.392000000     5.615000000     4.024000000
H    -2.076000000     5.187000000     3.228000000
H    -2.581000000     4.894000000     4.625000000
O     1.744000000    -0.417000000    -5.926000000
H     1.951000000     0.160000000    -6.661000000
H     1.537000000     0.178000000    -5.205000000
O     4.612000000    -1.007000000     2.506000000
H     4.988000000    -0.985000000     1.626000000
H     3.806000000    -0.496000000     2.436000000
O    -3.061000000    -3.749000000    -1.367000000
H    -3.124000000    -2.957000000    -1.899000000
H    -2.251000000    -4.169000000    -1.657000000
