158
-3050.54387
C    -0.324000000     1.374000000    -0.082000000
H    -0.543000000     2.411000000    -0.324000000
C    -0.800000000     0.366000000    -0.915000000
H    -1.582000000     0.549000000    -1.648000000
C    -0.470000000    -0.917000000    -0.687000000
H    -0.764000000    -1.710000000    -1.343000000
C     0.450000000    -1.209000000     0.303000000
H     0.737000000    -2.222000000     0.575000000
C     0.917000000    -0.138000000     1.153000000
H     1.503000000    -0.388000000     2.034000000
C     0.512000000     1.153000000     1.005000000
C     1.071000000     2.294000000     1.751000000
O     1.222000000     3.392000000     1.248000000
O     1.533000000     2.059000000     2.908000000
O    -0.097000000     6.914000000     0.109000000
H    -0.411000000     6.742000000    -0.779000000
H    -0.376000000     6.150000000     0.614000000
O     0.431000000    -2.958000000    -4.268000000
H     0.415000000    -3.559000000    -3.523000000
H     1.239000000    -3.176000000    -4.734000000
O    -3.764000000     5.564000000     0.909000000
H    -4.269000000     5.812000000     1.683000000
H    -2.996000000     5.112000000     1.258000000
O     1.655000000    -6.913000000     0.921000000
H     2.182000000    -6.205000000     1.291000000
H     1.378000000    -7.427000000     1.679000000
O    -3.502000000    -1.985000000    -1.649000000
H    -4.110000000    -1.330000000    -1.992000000
H    -2.953000000    -2.216000000    -2.399000000
O     1.722000000    -2.737000000     4.827000000
H     1.186000000    -3.530000000     4.853000000
H     1.093000000    -2.027000000     4.695000000
O     2.278000000     0.454000000    -2.032000000
H     2.291000000     1.410000000    -2.083000000
H     1.430000000     0.246000000    -1.641000000
O     0.393000000     2.444000000    -3.838000000
H     0.355000000     3.137000000    -3.178000000
H    -0.523000000     2.219000000    -4.001000000
O    -1.351000000     2.508000000     5.278000000
H    -0.506000000     2.877000000     5.537000000
H    -1.185000000     1.570000000     5.186000000
O     1.323000000     0.547000000    -5.827000000
H     1.445000000    -0.196000000    -5.235000000
H     1.254000000     1.306000000    -5.248000000
O    -2.074000000    -0.539000000     4.103000000
H    -1.186000000    -0.201000000     3.988000000
H    -2.048000000    -1.416000000     3.720000000
O     1.556000000     3.086000000     5.207000000
H     1.443000000     2.754000000     4.317000000
H     1.563000000     4.038000000     5.109000000
O    -4.504000000    -6.203000000    -3.080000000
H    -3.667000000    -5.804000000    -3.315000000
H    -4.946000000    -5.537000000    -2.552000000
O     3.744000000    -1.154000000    -0.479000000
H     3.491000000    -0.233000000    -0.534000000
H     3.489000000    -1.420000000     0.405000000
O     0.851000000     4.105000000    -1.733000000
H     1.512000000     4.761000000    -1.954000000
H     0.892000000     4.035000000    -0.779000000
O    -3.350000000     2.911000000     3.067000000
H    -2.743000000     2.972000000     3.804000000
H    -2.979000000     2.229000000     2.507000000
O     0.359000000    -7.034000000    -2.428000000
H    -0.267000000    -7.501000000    -2.981000000
H     1.184000000    -7.075000000    -2.911000000
O     4.304000000    -3.448000000    -1.835000000
H     4.266000000    -2.785000000    -1.145000000
H     5.074000000    -3.974000000    -1.619000000
O     1.921000000     6.489000000     2.210000000
H     1.320000000     6.807000000     1.536000000
H     2.733000000     6.303000000     1.739000000
O    -5.143000000     0.207000000    -2.594000000
H    -5.590000000     0.937000000    -2.164000000
H    -5.630000000     0.072000000    -3.406000000
O     3.357000000    -6.599000000    -1.492000000
H     2.678000000    -5.931000000    -1.587000000
H     3.164000000    -7.019000000    -0.654000000
O    -3.265000000    -0.271000000     0.998000000
H    -3.325000000    -0.529000000     0.078000000
H    -2.331000000    -0.125000000     1.145000000
O     3.332000000    -2.170000000     2.828000000
H     3.935000000    -1.455000000     3.032000000
H     2.834000000    -2.301000000     3.635000000
O     2.660000000     0.488000000     6.014000000
H     3.278000000     0.263000000     5.318000000
H     2.327000000     1.351000000     5.769000000
O    -1.980000000    -1.594000000    -3.943000000
H    -1.098000000    -1.961000000    -3.991000000
H    -1.846000000    -0.647000000    -3.924000000
O    -2.121000000    -5.055000000    -3.879000000
H    -1.502000000    -4.828000000    -3.185000000
H    -1.582000000    -5.123000000    -4.667000000
O     0.470000000     0.328000000     4.403000000
H     1.204000000     0.104000000     4.975000000
H     0.836000000     0.953000000     3.777000000
O     4.793000000     4.720000000     6.482000000
H     4.169000000     4.499000000     7.173000000
H     4.702000000     4.013000000     5.842000000
O    -1.287000000     4.833000000     1.712000000
H    -1.571000000     4.824000000     2.626000000
H    -0.430000000     4.407000000     1.723000000
O    -1.825000000     4.898000000    -2.887000000
H    -1.216000000     4.532000000    -2.247000000
H    -2.184000000     5.676000000    -2.459000000
O    -0.429000000    -4.473000000    -1.988000000
H    -0.026000000    -5.341000000    -1.981000000
H    -0.452000000    -4.213000000    -1.067000000
O    -5.628000000    -4.290000000    -1.560000000
H    -5.258000000    -3.424000000    -1.729000000
H    -5.945000000    -4.244000000    -0.658000000
O     5.787000000     3.046000000     4.185000000
H     5.785000000     2.141000000     3.874000000
H     5.326000000     3.535000000     3.503000000
O     2.756000000     5.953000000    -2.550000000
H     2.001000000     6.244000000    -3.061000000
H     3.502000000     6.068000000    -3.138000000
O    -1.963000000     1.238000000    -4.343000000
H    -1.683000000     1.183000000    -5.257000000
H    -2.877000000     1.520000000    -4.390000000
O     1.376000000     5.995000000     4.803000000
H     1.351000000     5.854000000     3.857000000
H     0.783000000     6.731000000     4.951000000
O     3.101000000    -4.836000000     2.306000000
H     3.214000000    -3.890000000     2.222000000
H     3.728000000    -5.093000000     2.982000000
O     3.801000000     3.915000000     1.925000000
H     2.887000000     3.673000000     2.069000000
H     3.840000000     4.166000000     1.002000000
O    -1.414000000    -2.836000000     2.633000000
H    -1.071000000    -3.638000000     3.027000000
H    -1.731000000    -3.109000000     1.772000000
O     2.952000000    -1.687000000    -3.876000000
H     3.231000000    -2.243000000    -3.149000000
H     2.569000000    -0.916000000    -3.456000000
O    -2.539000000    -6.925000000    -0.773000000
H    -2.954000000    -7.567000000    -1.349000000
H    -1.610000000    -7.156000000    -0.787000000
O     4.127000000    -3.018000000     5.946000000
H     3.255000000    -2.772000000     5.638000000
H     4.099000000    -2.870000000     6.891000000
O    -4.350000000     2.442000000    -4.640000000
H    -5.017000000     1.756000000    -4.639000000
H    -4.301000000     2.731000000    -3.729000000
O    -3.888000000    -2.812000000    -5.438000000
H    -3.151000000    -2.519000000    -4.901000000
H    -3.694000000    -2.477000000    -6.313000000
O     3.100000000    -4.991000000    -3.957000000
H     3.353000000    -4.714000000    -3.077000000
H     2.974000000    -5.937000000    -3.883000000
O     3.687000000     0.398000000     3.423000000
H     4.569000000     0.649000000     3.146000000
H     3.130000000     1.118000000     3.127000000
O     4.266000000     5.266000000    -0.236000000
H     5.120000000     5.219000000    -0.666000000
H     3.646000000     5.413000000    -0.950000000
O    -2.277000000    -4.144000000    -0.092000000
H    -2.547000000    -3.409000000    -0.642000000
H    -2.426000000    -4.918000000    -0.635000000
