158
-3041.43838
C     0.501000000     0.140000000    -1.345000000
H     0.870000000     0.291000000    -2.356000000
C     0.392000000     1.191000000    -0.429000000
H     0.455000000     2.219000000    -0.775000000
C    -0.130000000     0.904000000     0.789000000
H    -0.314000000     1.721000000     1.529000000
C    -0.355000000    -0.384000000     1.237000000
H    -0.831000000    -0.557000000     2.199000000
C    -0.173000000    -1.433000000     0.348000000
H    -0.499000000    -2.444000000     0.579000000
C     0.175000000    -1.162000000    -0.972000000
C     0.416000000    -2.361000000    -1.889000000
O     0.324000000    -3.551000000    -1.542000000
O     0.600000000    -2.086000000    -3.051000000
O     4.687000000    -4.052000000    -3.793000000
H     3.777000000    -4.346000000    -3.829000000
H     4.858000000    -3.913000000    -2.861000000
O     3.806000000    -3.356000000     3.037000000
H     4.154000000    -2.602000000     3.512000000
H     3.306000000    -2.975000000     2.316000000
O     3.266000000    -0.308000000    -6.155000000
H     3.959000000     0.121000000    -6.658000000
H     3.456000000    -1.243000000    -6.236000000
O     0.091000000     3.905000000     4.781000000
H     0.875000000     4.418000000     4.585000000
H    -0.587000000     4.559000000     4.950000000
O     2.702000000     4.920000000     4.680000000
H     3.064000000     5.659000000     4.190000000
H     3.442000000     4.324000000     4.796000000
O    -2.498000000     3.961000000    -0.575000000
H    -3.455000000     3.929000000    -0.584000000
H    -2.232000000     3.371000000    -1.280000000
O    -2.080000000     1.846000000    -4.191000000
H    -1.865000000     0.960000000    -4.482000000
H    -2.065000000     1.794000000    -3.235000000
O    -2.201000000     6.609000000    -1.275000000
H    -2.184000000     5.665000000    -1.113000000
H    -2.476000000     6.689000000    -2.188000000
O     3.977000000    -0.644000000     4.298000000
H     4.510000000    -0.045000000     3.775000000
H     3.170000000    -0.158000000     4.470000000
O     1.583000000     1.234000000     4.058000000
H     1.646000000     2.170000000     3.864000000
H     0.717000000     1.130000000     4.452000000
O    -0.493000000    -1.517000000     6.667000000
H     0.141000000    -1.677000000     5.967000000
H    -1.107000000    -2.248000000     6.606000000
O     4.953000000    -4.256000000    -0.873000000
H     4.416000000    -3.464000000    -0.892000000
H     4.341000000    -4.956000000    -0.646000000
O    -2.562000000    -4.397000000     1.811000000
H    -1.753000000    -4.127000000     2.247000000
H    -3.251000000    -4.212000000     2.448000000
O    -2.082000000    -0.893000000    -4.563000000
H    -1.533000000    -1.655000000    -4.378000000
H    -2.935000000    -1.115000000    -4.189000000
O    -4.118000000     0.472000000    -0.253000000
H    -4.626000000     1.145000000     0.201000000
H    -3.936000000    -0.184000000     0.420000000
O     2.920000000    -0.866000000     1.564000000
H     1.968000000    -0.959000000     1.606000000
H     3.074000000     0.072000000     1.674000000
O    -1.155000000    -5.601000000    -0.202000000
H    -1.253000000    -5.531000000     0.748000000
H    -0.578000000    -4.874000000    -0.436000000
O    -0.192000000     7.647000000     0.558000000
H    -0.724000000     7.167000000    -0.077000000
H     0.300000000     8.276000000     0.031000000
O     0.461000000     4.992000000    -1.728000000
H    -0.220000000     5.564000000    -2.079000000
H     1.093000000     4.904000000    -2.442000000
O     0.836000000    -0.673000000    -5.183000000
H     1.749000000    -0.631000000    -5.467000000
H     0.848000000    -1.248000000    -4.419000000
O     4.113000000     0.654000000    -3.210000000
H     4.790000000     0.997000000    -3.793000000
H     3.402000000     0.393000000    -3.795000000
O     1.388000000     4.565000000     0.978000000
H     1.344000000     4.843000000     0.063000000
H     1.867000000     5.267000000     1.419000000
O    -3.147000000     2.090000000     3.533000000
H    -2.232000000     1.812000000     3.572000000
H    -3.366000000     2.321000000     4.436000000
O    -2.038000000     5.010000000    -4.147000000
H    -1.930000000     4.066000000    -4.033000000
H    -2.978000000     5.130000000    -4.280000000
O     2.197000000    -5.171000000    -0.565000000
H     1.335000000    -4.781000000    -0.710000000
H     2.047000000    -6.114000000    -0.626000000
O    -3.291000000    -1.909000000     4.531000000
H    -2.387000000    -1.759000000     4.254000000
H    -3.238000000    -2.658000000     5.125000000
O     5.064000000     4.162000000     2.830000000
H     5.729000000     4.085000000     2.145000000
H     4.494000000     3.404000000     2.697000000
O    -0.865000000     1.614000000     5.702000000
H    -1.681000000     1.842000000     6.147000000
H    -0.500000000     2.454000000     5.424000000
O     1.782000000    -2.731000000     5.255000000
H     2.254000000    -3.545000000     5.433000000
H     2.371000000    -2.231000000     4.690000000
O    -4.138000000    -1.604000000     1.669000000
H    -3.632000000    -1.687000000     2.476000000
H    -5.048000000    -1.726000000     1.942000000
O    -4.988000000     2.531000000     1.420000000
H    -4.399000000     2.503000000     2.174000000
H    -5.864000000     2.587000000     1.803000000
O    -3.233000000    -4.244000000    -5.160000000
H    -2.627000000    -3.755000000    -5.717000000
H    -2.811000000    -4.257000000    -4.301000000
O    -0.431000000    -6.106000000    -3.444000000
H    -0.088000000    -6.796000000    -2.876000000
H    -0.774000000    -5.447000000    -2.840000000
O    -0.324000000    -3.176000000    -6.537000000
H    -0.166000000    -2.554000000    -5.827000000
H     0.494000000    -3.182000000    -7.035000000
O    -2.202000000     1.616000000    -1.629000000
H    -2.976000000     1.269000000    -1.186000000
H    -1.474000000     1.396000000    -1.047000000
O     4.544000000     4.825000000    -1.795000000
H     4.683000000     4.702000000    -2.734000000
H     4.470000000     3.937000000    -1.445000000
O     3.575000000    -1.901000000    -0.914000000
H     2.728000000    -1.806000000    -1.349000000
H     3.509000000    -1.345000000    -0.138000000
O    -1.966000000    -3.665000000    -2.948000000
H    -2.486000000    -2.896000000    -2.716000000
H    -1.100000000    -3.489000000    -2.579000000
O     3.171000000    -3.009000000    -6.512000000
H     3.486000000    -3.563000000    -7.227000000
H     3.680000000    -3.289000000    -5.751000000
O    -3.539000000    -2.856000000    -0.588000000
H    -3.838000000    -2.465000000     0.233000000
H    -3.386000000    -3.776000000    -0.372000000
O     4.371000000     2.206000000    -1.104000000
H     4.024000000     1.795000000    -1.896000000
H     5.262000000     1.867000000    -1.028000000
O    -1.555000000     6.678000000     2.955000000
H    -1.535000000     5.773000000     2.646000000
H    -0.717000000     7.046000000     2.674000000
O     1.912000000    -4.706000000    -3.801000000
H     1.105000000    -5.216000000    -3.877000000
H     1.653000000    -3.920000000    -3.319000000
O    -0.741000000    -3.718000000     3.963000000
H    -1.099000000    -4.024000000     4.796000000
H     0.014000000    -3.183000000     4.209000000
O     3.216000000     1.807000000     1.226000000
H     2.380000000     2.224000000     1.022000000
H     3.726000000     1.886000000     0.420000000
O    -1.279000000     4.296000000     1.763000000
H    -0.391000000     4.451000000     1.441000000
H    -1.754000000     3.960000000     1.002000000
O    -0.817000000     0.787000000    -7.416000000
H    -0.127000000     0.565000000    -8.041000000
H    -0.493000000     0.461000000    -6.576000000
O    -4.105000000    -1.072000000    -2.623000000
H    -3.902000000    -0.274000000    -2.135000000
H    -4.198000000    -1.747000000    -1.951000000
