158
-3042.50740
C    -0.766000000     1.024000000    -0.790000000
H    -1.466000000     1.614000000    -1.376000000
C    -1.001000000    -0.330000000    -0.752000000
H    -1.856000000    -0.727000000    -1.294000000
C    -0.211000000    -1.191000000    -0.019000000
H    -0.504000000    -2.238000000     0.012000000
C     0.792000000    -0.688000000     0.808000000
H     1.245000000    -1.441000000     1.448000000
C     1.032000000     0.714000000     0.883000000
H     1.803000000     1.062000000     1.565000000
C     0.305000000     1.556000000    -0.065000000
C     0.617000000     3.020000000    -0.183000000
O    -0.030000000     3.754000000    -0.940000000
O     1.665000000     3.499000000     0.278000000
O     0.812000000     7.835000000    -1.342000000
H     1.368000000     8.223000000    -2.018000000
H     0.597000000     8.565000000    -0.761000000
O    -2.128000000     7.723000000    -1.741000000
H    -1.608000000     7.221000000    -2.369000000
H    -2.060000000     8.629000000    -2.044000000
O     1.957000000     4.378000000     2.839000000
H     1.923000000     3.919000000     2.000000000
H     1.505000000     5.205000000     2.678000000
O    -3.568000000    -1.979000000     3.330000000
H    -4.080000000    -2.617000000     2.832000000
H    -2.998000000    -2.511000000     3.885000000
O     6.299000000    -0.014000000     2.506000000
H     6.217000000    -0.616000000     3.246000000
H     5.559000000     0.586000000     2.602000000
O    -3.345000000    -3.359000000    -0.431000000
H    -3.778000000    -2.663000000    -0.924000000
H    -3.254000000    -4.076000000    -1.059000000
O     2.134000000    -0.532000000    -1.831000000
H     1.676000000    -0.753000000    -1.020000000
H     2.657000000     0.239000000    -1.609000000
O    -1.242000000     3.055000000    -3.546000000
H    -1.137000000     3.329000000    -2.635000000
H    -0.457000000     2.540000000    -3.734000000
O    -1.160000000    -4.461000000     1.849000000
H    -1.906000000    -4.910000000     2.247000000
H    -1.439000000    -4.284000000     0.951000000
O     0.553000000     0.823000000    -3.788000000
H     1.216000000     0.924000000    -4.471000000
H     1.030000000     0.455000000    -3.044000000
O     3.073000000     7.984000000     1.580000000
H     2.591000000     7.288000000     1.134000000
H     2.395000000     8.510000000     2.005000000
O     2.159000000    -5.581000000     0.471000000
H     1.539000000    -5.216000000     1.102000000
H     1.911000000    -6.502000000     0.398000000
O    -5.267000000    -1.735000000    -2.003000000
H    -4.895000000    -2.110000000    -2.801000000
H    -6.118000000    -2.165000000    -1.911000000
O     5.465000000     3.527000000    -0.429000000
H     5.928000000     3.443000000    -1.262000000
H     4.863000000     4.260000000    -0.562000000
O    -1.487000000     5.347000000     2.920000000
H    -1.220000000     4.443000000     3.087000000
H    -0.840000000     5.677000000     2.297000000
O     4.289000000     1.751000000     3.471000000
H     3.714000000     2.403000000     3.871000000
H     5.101000000     2.226000000     3.291000000
O    -3.862000000     1.840000000    -4.732000000
H    -2.913000000     1.782000000    -4.627000000
H    -4.128000000     2.537000000    -4.132000000
O    -1.439000000     0.660000000    -5.813000000
H    -0.726000000     1.257000000    -5.586000000
H    -1.059000000    -0.213000000    -5.717000000
O    -2.900000000     2.697000000     1.911000000
H    -2.876000000     1.751000000     2.058000000
H    -2.549000000     3.074000000     2.718000000
O    -1.920000000     0.097000000     2.997000000
H    -2.512000000    -0.583000000     3.319000000
H    -1.135000000    -0.378000000     2.725000000
O     2.874000000    -0.922000000     4.805000000
H     3.096000000    -1.794000000     4.479000000
H     3.550000000    -0.351000000     4.441000000
O     0.025000000    -5.646000000    -3.071000000
H     0.882000000    -5.220000000    -3.034000000
H     0.072000000    -6.337000000    -2.410000000
O    -2.554000000    -4.844000000    -2.671000000
H    -1.709000000    -5.230000000    -2.901000000
H    -3.121000000    -5.595000000    -2.499000000
O     0.383000000     5.992000000     1.011000000
H     0.061000000     6.689000000     0.438000000
H     0.388000000     5.211000000     0.458000000
O     0.109000000    -7.003000000     1.993000000
H    -0.187000000    -7.379000000     2.822000000
H    -0.293000000    -6.135000000     1.967000000
O     4.646000000    -5.388000000    -0.855000000
H     3.766000000    -5.493000000    -0.495000000
H     4.548000000    -5.580000000    -1.788000000
O    -4.385000000     3.410000000    -2.601000000
H    -3.797000000     3.634000000    -1.879000000
H    -5.192000000     3.124000000    -2.173000000
O    -5.245000000    -3.364000000     1.535000000
H    -5.576000000    -2.471000000     1.621000000
H    -4.567000000    -3.305000000     0.862000000
O     4.035000000    -2.219000000    -2.593000000
H     3.352000000    -1.603000000    -2.326000000
H     3.586000000    -2.841000000    -3.166000000
O     3.478000000     1.639000000    -0.787000000
H     4.264000000     2.047000000    -0.426000000
H     2.753000000     2.132000000    -0.403000000
O    -3.046000000     5.588000000    -3.908000000
H    -2.497000000     4.901000000    -4.286000000
H    -3.640000000     5.124000000    -3.319000000
O    -0.701000000    -1.313000000     5.244000000
H    -0.017000000    -1.354000000     5.913000000
H    -0.897000000    -0.380000000     5.159000000
O     1.810000000     4.598000000    -5.209000000
H     1.644000000     3.669000000    -5.368000000
H     1.712000000     4.701000000    -4.263000000
O    -2.687000000     3.913000000    -0.668000000
H    -1.789000000     4.169000000    -0.877000000
H    -2.672000000     3.730000000     0.272000000
O     3.569000000     5.359000000    -1.102000000
H     3.105000000     5.781000000    -1.826000000
H     2.879000000     5.115000000    -0.485000000
O    -4.275000000     0.654000000    -0.097000000
H    -4.042000000    -0.021000000    -0.735000000
H    -3.472000000     1.161000000     0.020000000
O     0.608000000    -3.115000000     3.174000000
H    -0.158000000    -3.564000000     2.819000000
H     0.247000000    -2.464000000     3.776000000
O     4.091000000    -2.836000000     0.496000000
H     4.172000000    -2.311000000    -0.301000000
H     4.332000000    -3.721000000     0.224000000
O     6.121000000     3.502000000     2.304000000
H     7.060000000     3.661000000     2.200000000
H     5.816000000     3.289000000     1.422000000
O     4.617000000     5.084000000     4.004000000
H     3.689000000     5.006000000     3.781000000
H     5.073000000     4.642000000     3.287000000
O    -3.112000000    -5.312000000     3.725000000
H    -3.804000000    -4.834000000     4.182000000
H    -2.547000000    -5.642000000     4.423000000
O    -6.148000000     0.307000000    -3.936000000
H    -5.416000000     0.874000000    -4.178000000
H    -5.746000000    -0.404000000    -3.437000000
O     3.268000000    -3.551000000     3.005000000
H     3.478000000    -3.259000000     2.118000000
H     2.334000000    -3.368000000     3.103000000
O     4.308000000     2.787000000    -3.594000000
H     5.235000000     2.912000000    -3.393000000
H     3.867000000     2.861000000    -2.748000000
O    -3.646000000     6.389000000     0.081000000
H    -3.183000000     6.957000000    -0.536000000
H    -3.296000000     5.515000000    -0.090000000
O    -0.986000000     2.762000000     4.046000000
H    -0.820000000     2.039000000     3.442000000
H    -0.642000000     2.457000000     4.886000000
O    -3.572000000    -2.665000000    -3.647000000
H    -3.137000000    -3.335000000    -3.119000000
H    -3.302000000    -2.856000000    -4.546000000
O     0.969000000     5.167000000    -2.787000000
H     0.911000000     6.017000000    -2.350000000
H     0.631000000     4.544000000    -2.144000000
