158
-3073.69742
C    -1.048000000     1.060000000     0.191000000
H    -1.635000000     1.835000000     0.677000000
C    -1.258000000    -0.324000000     0.331000000
H    -2.264000000    -0.653000000     0.575000000
C    -0.257000000    -1.208000000     0.031000000
H    -0.357000000    -2.274000000     0.015000000
C     0.955000000    -0.752000000    -0.488000000
H     1.754000000    -1.461000000    -0.690000000
C     1.200000000     0.637000000    -0.566000000
H     2.184000000     1.023000000    -0.822000000
C     0.200000000     1.588000000    -0.227000000
C     0.482000000     3.054000000    -0.005000000
O    -0.212000000     3.694000000     0.775000000
O     1.582000000     3.480000000    -0.354000000
O     1.356000000    -3.820000000     2.247000000
H     0.517000000    -3.372000000     2.138000000
H     1.911000000    -3.183000000     2.697000000
O    -6.148000000    -0.919000000     2.059000000
H    -6.667000000    -0.219000000     1.663000000
H    -6.774000000    -1.628000000     2.207000000
O     4.917000000     2.899000000     2.856000000
H     4.049000000     3.297000000     2.792000000
H     5.463000000     3.418000000     2.264000000
O    -3.402000000    -5.754000000     2.547000000
H    -4.172000000    -6.253000000     2.273000000
H    -3.103000000    -5.318000000     1.749000000
O    -0.635000000     4.756000000    -2.739000000
H     0.235000000     5.126000000    -2.590000000
H    -1.169000000     5.105000000    -2.025000000
O    -3.296000000    -4.858000000     0.004000000
H    -4.114000000    -4.400000000     0.197000000
H    -3.418000000    -5.205000000    -0.880000000
O     4.603000000    -2.138000000     1.198000000
H     4.497000000    -1.487000000     0.504000000
H     4.393000000    -2.972000000     0.778000000
O     3.944000000     5.480000000    -3.677000000
H     3.424000000     5.139000000    -4.405000000
H     3.349000000     5.458000000    -2.928000000
O    -3.248000000     2.774000000    -2.305000000
H    -2.451000000     2.395000000    -2.674000000
H    -2.999000000     3.044000000    -1.421000000
O     0.734000000    -4.758000000    -1.479000000
H    -0.050000000    -5.057000000    -1.940000000
H     1.026000000    -3.993000000    -1.974000000
O     4.467000000    -3.075000000    -4.030000000
H     4.313000000    -3.995000000    -3.817000000
H     4.757000000    -3.085000000    -4.942000000
O     2.368000000     3.988000000     4.927000000
H     1.479000000     3.747000000     4.667000000
H     2.847000000     3.159000000     4.937000000
O     3.177000000    -4.286000000     0.210000000
H     2.422000000    -4.120000000     0.775000000
H     2.811000000    -4.733000000    -0.553000000
O     0.247000000     5.528000000     2.497000000
H     0.660000000     6.180000000     1.930000000
H    -0.098000000     4.870000000     1.893000000
O     2.968000000     1.566000000    -3.348000000
H     2.080000000     1.665000000    -3.006000000
H     3.303000000     0.777000000    -2.921000000
O    -4.975000000    -0.790000000    -0.901000000
H    -5.041000000    -0.548000000     0.022000000
H    -5.121000000     0.029000000    -1.375000000
O    -6.498000000     1.345000000     0.598000000
H    -6.356000000     2.098000000     1.171000000
H    -6.025000000     1.562000000    -0.205000000
O    -3.968000000    -0.857000000    -4.097000000
H    -4.639000000    -1.339000000    -3.614000000
H    -3.334000000    -0.596000000    -3.429000000
O    -3.854000000     0.273000000     3.848000000
H    -3.909000000    -0.114000000     2.974000000
H    -3.890000000    -0.475000000     4.444000000
O     1.129000000    -0.076000000     3.125000000
H     0.620000000    -0.786000000     2.735000000
H     1.887000000    -0.511000000     3.516000000
O    -2.213000000     4.719000000    -0.408000000
H    -1.502000000     4.268000000     0.047000000
H    -2.558000000     5.336000000     0.237000000
O    -5.423000000     4.097000000    -0.461000000
H    -4.554000000     4.377000000    -0.750000000
H    -5.395000000     4.175000000     0.493000000
O     1.775000000    -6.642000000     2.870000000
H     1.585000000    -6.618000000     3.808000000
H     1.631000000    -5.743000000     2.573000000
O     0.112000000     2.466000000     3.445000000
H     0.070000000     2.791000000     2.546000000
H     0.589000000     1.639000000     3.379000000
O    -3.959000000    -4.547000000    -2.631000000
H    -3.152000000    -4.040000000    -2.720000000
H    -4.650000000    -3.950000000    -2.916000000
O    -5.808000000    -3.663000000    -0.188000000
H    -5.311000000    -2.984000000    -0.644000000
H    -6.708000000    -3.548000000    -0.494000000
O     0.471000000     6.821000000     5.141000000
H     0.224000000     6.520000000     4.266000000
H     0.884000000     6.059000000     5.548000000
O     3.039000000    -2.117000000     3.718000000
H     3.609000000    -1.913000000     2.976000000
H     3.580000000    -1.944000000     4.489000000
O    -5.745000000     3.575000000     2.377000000
H    -4.953000000     3.513000000     2.911000000
H    -6.417000000     3.129000000     2.893000000
O    -1.615000000    -3.120000000    -2.735000000
H    -1.368000000    -3.263000000    -1.821000000
H    -1.406000000    -2.200000000    -2.898000000
O     1.811000000    -2.852000000    -3.126000000
H     1.620000000    -2.368000000    -3.929000000
H     2.767000000    -2.885000000    -3.087000000
O    -1.201000000    -2.142000000     3.083000000
H    -1.953000000    -2.336000000     2.522000000
H    -1.587000000    -1.837000000     3.904000000
O    -1.732000000    -0.097000000    -2.504000000
H    -1.245000000     0.014000000    -1.687000000
H    -1.492000000     0.665000000    -3.031000000
O    -3.691000000     6.920000000     1.100000000
H    -4.485000000     7.415000000     1.299000000
H    -3.200000000     6.914000000     1.922000000
O     4.172000000    -0.558000000    -2.341000000
H     4.452000000    -1.012000000    -3.137000000
H     4.957000000    -0.527000000    -1.795000000
O     5.928000000     4.508000000     0.839000000
H     5.272000000     4.201000000     0.213000000
H     6.611000000     4.902000000     0.296000000
O     1.108000000     7.332000000     0.379000000
H     1.875000000     7.811000000     0.692000000
H     0.476000000     8.015000000     0.153000000
O    -5.571000000     1.471000000    -2.072000000
H    -4.896000000     2.144000000    -1.981000000
H    -5.935000000     1.614000000    -2.946000000
O     5.182000000    -6.070000000     1.024000000
H     5.184000000    -6.615000000     0.237000000
H     4.447000000    -5.469000000     0.898000000
O     5.655000000     2.575000000    -3.281000000
H     4.819000000     2.790000000    -3.695000000
H     5.437000000     2.436000000    -2.360000000
O     4.408000000     2.625000000    -0.675000000
H     3.467000000     2.644000000    -0.849000000
H     4.502000000     2.030000000     0.069000000
O    -0.693000000     2.211000000    -3.438000000
H    -0.472000000     1.987000000    -4.342000000
H    -0.443000000     3.130000000    -3.350000000
O     1.564000000     5.621000000    -1.684000000
H     1.710000000     4.828000000    -1.168000000
H     1.528000000     6.325000000    -1.037000000
O    -3.248000000     3.070000000     3.610000000
H    -3.509000000     2.150000000     3.640000000
H    -2.291000000     3.047000000     3.605000000
O     2.414000000     0.546000000    -5.851000000
H     2.498000000     1.237000000    -6.508000000
H     2.882000000     0.884000000    -5.087000000
O    -3.867000000    -2.651000000     2.603000000
H    -3.809000000    -3.549000000     2.930000000
H    -4.807000000    -2.472000000     2.564000000
O     1.095000000    -7.414000000     0.155000000
H     1.290000000    -6.551000000    -0.212000000
H     1.232000000    -7.310000000     1.096000000
O     2.912000000     4.560000000     1.776000000
H     2.051000000     4.696000000     2.172000000
H     2.723000000     4.203000000     0.908000000
