158
-3014.77487
C    -0.716000000     1.158000000     0.521000000
H    -1.306000000     1.922000000     1.021000000
C    -1.293000000    -0.077000000     0.255000000
H    -2.357000000    -0.215000000     0.435000000
C    -0.497000000    -1.127000000    -0.115000000
H    -0.959000000    -2.032000000    -0.334000000
C     0.838000000    -0.931000000    -0.371000000
H     1.480000000    -1.752000000    -0.680000000
C     1.348000000     0.349000000    -0.248000000
H     2.404000000     0.531000000    -0.434000000
C     0.613000000     1.424000000     0.214000000
C     1.194000000     2.832000000     0.280000000
O     0.526000000     3.808000000     0.526000000
O     2.225000000     3.062000000    -0.264000000
O    -2.151000000    -3.731000000     2.632000000
H    -2.610000000    -2.916000000     2.425000000
H    -2.006000000    -4.147000000     1.782000000
O    -3.957000000    -6.173000000     2.828000000
H    -3.212000000    -5.578000000     2.911000000
H    -3.975000000    -6.405000000     1.900000000
O    -4.074000000    -1.422000000     2.151000000
H    -4.169000000    -1.010000000     1.292000000
H    -4.785000000    -2.062000000     2.189000000
O    -0.725000000    -6.743000000    -1.300000000
H    -0.050000000    -6.161000000    -1.649000000
H    -0.282000000    -7.237000000    -0.611000000
O     3.938000000     3.111000000     1.782000000
H     3.288000000     3.251000000     1.093000000
H     3.425000000     2.853000000     2.547000000
O    -2.026000000    -4.517000000     5.546000000
H    -2.880000000    -4.901000000     5.350000000
H    -1.683000000    -4.248000000     4.694000000
O     0.830000000     3.643000000    -4.168000000
H     1.426000000     4.053000000    -3.541000000
H     0.024000000     3.497000000    -3.672000000
O     6.083000000     1.484000000     1.207000000
H     6.296000000     1.357000000     0.283000000
H     5.431000000     2.185000000     1.208000000
O    -2.076000000    -4.772000000     0.152000000
H    -2.652000000    -4.329000000    -0.471000000
H    -2.017000000    -5.670000000    -0.174000000
O     4.845000000    -2.063000000     0.881000000
H     5.608000000    -2.566000000     1.166000000
H     4.489000000    -2.563000000     0.146000000
O     4.886000000     5.234000000    -3.683000000
H     3.977000000     5.483000000    -3.856000000
H     4.849000000     4.748000000    -2.860000000
O    -2.374000000     3.404000000    -2.963000000
H    -2.226000000     3.766000000    -2.089000000
H    -3.097000000     3.921000000    -3.317000000
O    -2.669000000    -0.977000000    -4.034000000
H    -3.190000000    -1.347000000    -3.322000000
H    -1.782000000    -0.923000000    -3.680000000
O     0.333000000    -4.048000000    -2.314000000
H     0.911000000    -3.419000000    -2.746000000
H    -0.493000000    -3.984000000    -2.794000000
O    -0.824000000     7.151000000    -1.922000000
H    -0.612000000     8.047000000    -2.183000000
H    -0.177000000     6.938000000    -1.249000000
O     4.174000000    -3.012000000    -1.771000000
H     3.309000000    -2.956000000    -2.177000000
H     4.757000000    -3.279000000    -2.482000000
O     2.384000000     2.603000000     3.995000000
H     2.386000000     1.687000000     4.273000000
H     2.543000000     3.098000000     4.799000000
O    -5.597000000    -3.796000000     2.229000000
H    -5.225000000    -4.674000000     2.148000000
H    -6.223000000    -3.866000000     2.949000000
O     0.805000000    -4.498000000     0.263000000
H    -0.047000000    -4.805000000     0.573000000
H     0.638000000    -4.189000000    -0.628000000
O     0.134000000     3.562000000     3.278000000
H     0.967000000     3.212000000     3.593000000
H     0.281000000     3.731000000     2.347000000
O     5.284000000    -0.580000000     2.997000000
H     4.868000000    -1.077000000     2.292000000
H     5.693000000     0.164000000     2.557000000
O    -4.989000000    -0.624000000    -0.582000000
H    -5.818000000    -0.799000000    -0.136000000
H    -5.193000000     0.077000000    -1.201000000
O    -6.384000000     0.556000000     3.175000000
H    -6.531000000     0.373000000     4.103000000
H    -5.581000000     1.076000000     3.158000000
O    -0.286000000    -0.422000000    -3.194000000
H     0.162000000    -0.326000000    -2.354000000
H     0.416000000    -0.387000000    -3.845000000
O    -2.437000000     2.329000000     3.249000000
H    -2.270000000     1.415000000     3.481000000
H    -1.570000000     2.734000000     3.232000000
O     0.396000000    -1.261000000     2.772000000
H     0.305000000    -0.799000000     1.939000000
H     0.351000000    -2.188000000     2.539000000
O    -1.911000000     4.246000000    -0.240000000
H    -0.959000000     4.184000000    -0.163000000
H    -2.231000000     4.165000000     0.658000000
O     6.916000000     0.836000000    -1.364000000
H     6.310000000     0.230000000    -1.791000000
H     7.469000000     1.162000000    -2.075000000
O     2.415000000    -0.146000000     4.471000000
H     1.898000000    -0.686000000     3.873000000
H     1.811000000     0.069000000     5.181000000
O     3.223000000    -5.545000000    -0.209000000
H     3.546000000    -4.948000000    -0.885000000
H     2.271000000    -5.452000000    -0.242000000
O    -1.924000000    -4.063000000    -3.639000000
H    -2.302000000    -3.371000000    -4.181000000
H    -2.559000000    -4.777000000    -3.685000000
O    -4.154000000    -3.226000000    -0.999000000
H    -4.515000000    -3.278000000    -1.884000000
H    -4.215000000    -2.298000000    -0.770000000
O    -3.330000000     2.881000000     5.997000000
H    -4.259000000     2.652000000     5.967000000
H    -2.984000000     2.586000000     5.155000000
O    -0.144000000     5.890000000     4.708000000
H     0.017000000     5.023000000     5.080000000
H     0.194000000     5.833000000     3.814000000
O     2.671000000    -3.437000000     2.158000000
H     3.237000000    -2.873000000     1.630000000
H     2.295000000    -4.053000000     1.529000000
O    -5.011000000     2.910000000     2.857000000
H    -4.076000000     2.915000000     2.652000000
H    -5.432000000     2.614000000     2.050000000
O     2.127000000    -2.611000000    -3.415000000
H     2.314000000    -3.272000000    -4.082000000
H     1.878000000    -1.833000000    -3.913000000
O    -6.125000000    -5.277000000    -0.330000000
H    -5.567000000    -4.500000000    -0.307000000
H    -6.693000000    -5.141000000    -1.089000000
O    -2.616000000     6.985000000     1.391000000
H    -2.553000000     7.812000000     0.914000000
H    -1.727000000     6.630000000     1.373000000
O     5.528000000     4.972000000    -0.621000000
H     5.510000000     4.016000000    -0.610000000
H     4.710000000     5.232000000    -0.197000000
O    -5.408000000     3.031000000     0.026000000
H    -4.947000000     2.816000000    -0.785000000
H    -5.268000000     3.971000000     0.139000000
O     2.404000000     7.367000000    -0.625000000
H     2.430000000     8.208000000    -1.083000000
H     2.812000000     7.542000000     0.223000000
O     4.471000000     2.806000000    -2.188000000
H     3.766000000     2.635000000    -1.565000000
H     4.204000000     2.347000000    -2.985000000
O     3.024000000     2.077000000    -4.547000000
H     3.823000000     2.332000000    -5.008000000
H     2.455000000     2.844000000    -4.610000000
O     2.201000000     4.950000000    -2.183000000
H     1.851000000     4.388000000    -1.492000000
H     2.454000000     5.756000000    -1.731000000
O    -1.576000000    -0.549000000     4.412000000
H    -2.179000000    -1.091000000     3.904000000
H    -0.789000000    -0.492000000     3.869000000
O    -4.974000000    -3.191000000    -3.755000000
H    -4.553000000    -3.995000000    -4.059000000
H    -5.399000000    -2.834000000    -4.535000000
O     0.164000000     6.341000000     1.527000000
H     0.938000000     6.893000000     1.637000000
H     0.445000000     5.654000000     0.922000000
