158
-3050.23669
C    -0.451000000     1.255000000     0.564000000
H    -1.042000000     2.054000000     1.005000000
C    -1.129000000     0.035000000     0.556000000
H    -2.091000000    -0.032000000     1.057000000
C    -0.620000000    -1.100000000    -0.099000000
H    -1.229000000    -1.978000000    -0.135000000
C     0.673000000    -1.028000000    -0.662000000
H     1.105000000    -1.912000000    -1.124000000
C     1.354000000     0.211000000    -0.577000000
H     2.377000000     0.387000000    -0.897000000
C     0.844000000     1.348000000     0.074000000
C     1.645000000     2.652000000     0.150000000
O     1.148000000     3.697000000     0.571000000
O     2.801000000     2.664000000    -0.218000000
O     4.785000000    -5.252000000    -2.365000000
H     4.114000000    -4.586000000    -2.517000000
H     4.535000000    -5.658000000    -1.535000000
O     6.632000000     2.749000000    -0.227000000
H     6.215000000     2.625000000     0.625000000
H     7.335000000     3.377000000    -0.061000000
O    -6.866000000    -2.128000000     0.146000000
H    -7.183000000    -1.379000000     0.651000000
H    -7.337000000    -2.878000000     0.509000000
O     6.438000000     0.306000000    -1.718000000
H     6.640000000     0.713000000    -2.560000000
H     6.488000000     1.023000000    -1.087000000
O    -2.563000000     6.323000000    -1.750000000
H    -2.085000000     5.494000000    -1.760000000
H    -2.740000000     6.486000000    -0.824000000
O    -4.170000000    -2.246000000     0.244000000
H    -4.014000000    -2.019000000     1.161000000
H    -5.037000000    -1.890000000     0.053000000
O     3.611000000    -3.103000000     0.323000000
H     3.493000000    -3.101000000    -0.627000000
H     4.451000000    -2.667000000     0.461000000
O     1.782000000     5.967000000    -3.491000000
H     1.445000000     6.060000000    -2.600000000
H     2.198000000     5.105000000    -3.501000000
O    -1.117000000     1.487000000    -2.265000000
H    -0.955000000     2.328000000    -1.838000000
H    -0.989000000     0.838000000    -1.574000000
O     3.479000000     6.914000000     2.929000000
H     2.774000000     6.396000000     3.317000000
H     3.976000000     7.242000000     3.678000000
O    -2.477000000    -6.811000000    -2.365000000
H    -1.525000000    -6.707000000    -2.360000000
H    -2.808000000    -6.001000000    -1.977000000
O    -1.422000000     1.615000000     5.477000000
H    -0.765000000     1.951000000     4.867000000
H    -1.438000000     0.672000000     5.315000000
O    -4.504000000     1.880000000    -2.038000000
H    -5.421000000     2.080000000    -1.851000000
H    -4.452000000     1.866000000    -2.994000000
O     2.528000000     2.955000000     5.177000000
H     1.865000000     2.819000000     4.500000000
H     3.337000000     2.620000000     4.790000000
O     0.328000000     2.744000000     3.477000000
H     0.405000000     1.894000000     3.042000000
H     0.561000000     3.381000000     2.801000000
O     3.385000000    -2.862000000    -2.269000000
H     3.822000000    -2.222000000    -2.831000000
H     2.591000000    -3.098000000    -2.749000000
O    -2.053000000    -5.621000000    -4.944000000
H    -2.064000000    -5.027000000    -4.193000000
H    -1.200000000    -6.052000000    -4.896000000
O     2.890000000     2.383000000    -2.950000000
H     2.675000000     2.632000000    -2.050000000
H     3.405000000     3.117000000    -3.284000000
O    -3.492000000    -0.905000000    -2.585000000
H    -3.195000000     0.000000000    -2.488000000
H    -3.556000000    -1.233000000    -1.688000000
O    -5.038000000    -2.928000000    -4.328000000
H    -5.387000000    -3.303000000    -3.519000000
H    -4.320000000    -2.365000000    -4.041000000
O    -1.284000000    -3.492000000     4.603000000
H    -1.001000000    -4.234000000     4.070000000
H    -0.807000000    -3.593000000     5.427000000
O    -1.334000000     4.206000000    -0.421000000
H    -0.514000000     4.271000000     0.069000000
H    -2.004000000     4.071000000     0.248000000
O     6.387000000    -1.813000000     0.096000000
H     6.746000000    -2.623000000    -0.265000000
H     6.454000000    -1.181000000    -0.621000000
O    -1.771000000    -0.915000000     4.354000000
H    -2.607000000    -0.803000000     3.901000000
H    -1.743000000    -1.846000000     4.577000000
O    -3.449000000    -4.395000000    -1.161000000
H    -3.508000000    -3.523000000    -0.772000000
H    -4.063000000    -4.926000000    -0.654000000
O     0.157000000    -6.082000000    -2.365000000
H     0.269000000    -5.133000000    -2.326000000
H     0.560000000    -6.337000000    -3.196000000
O    -4.189000000    -1.072000000     2.887000000
H    -4.262000000    -0.118000000     2.887000000
H    -5.091000000    -1.382000000     2.812000000
O     1.440000000    -2.373000000     2.221000000
H     2.049000000    -2.793000000     1.614000000
H     0.757000000    -3.027000000     2.367000000
O    -2.480000000    -1.105000000    -5.825000000
H    -1.802000000    -0.793000000    -5.225000000
H    -2.122000000    -1.914000000    -6.190000000
O    -3.434000000     1.521000000     3.288000000
H    -3.340000000     1.973000000     4.126000000
H    -3.477000000     2.225000000     2.640000000
O     6.277000000     6.851000000    -1.100000000
H     5.696000000     6.093000000    -1.023000000
H     5.727000000     7.536000000    -1.479000000
O    -1.997000000    -3.276000000    -3.188000000
H    -2.491000000    -3.754000000    -2.522000000
H    -2.445000000    -2.433000000    -3.259000000
O     1.112000000    -3.336000000    -3.819000000
H     0.215000000    -3.074000000    -3.612000000
H     1.220000000    -3.110000000    -4.743000000
O     3.312000000     0.887000000     3.563000000
H     2.597000000     0.357000000     3.209000000
H     3.860000000     0.262000000     4.038000000
O    -0.450000000    -5.642000000     3.306000000
H    -0.792000000    -6.467000000     2.961000000
H     0.478000000    -5.651000000     3.071000000
O    -0.201000000    -0.320000000    -4.140000000
H     0.377000000     0.123000000    -4.761000000
H    -0.264000000     0.284000000    -3.400000000
O     3.848000000     7.134000000     0.392000000
H     3.377000000     7.050000000     1.221000000
H     4.383000000     6.343000000     0.339000000
O     3.282000000    -0.220000000    -3.715000000
H     2.959000000    -0.034000000    -4.597000000
H     2.937000000     0.494000000    -3.178000000
O     0.545000000     0.034000000     3.083000000
H    -0.343000000    -0.163000000     3.379000000
H     0.782000000    -0.706000000     2.524000000
O     6.185000000     4.991000000     3.033000000
H     5.618000000     4.347000000     2.608000000
H     6.343000000     5.652000000     2.360000000
O    -0.315000000     8.135000000     0.064000000
H    -1.230000000     7.889000000     0.199000000
H     0.109000000     7.329000000    -0.230000000
O    -3.850000000     3.011000000     0.648000000
H    -4.758000000     2.955000000     0.947000000
H    -3.858000000     2.607000000    -0.220000000
O     4.446000000     3.059000000     2.092000000
H     3.824000000     3.154000000     1.371000000
H     4.180000000     2.251000000     2.533000000
O     0.200000000     2.622000000    -4.414000000
H    -0.461000000     2.342000000    -3.780000000
H     1.028000000     2.310000000    -4.050000000
O     1.376000000     6.223000000    -0.699000000
H     1.472000000     5.394000000    -0.231000000
H     2.252000000     6.610000000    -0.683000000
O    -2.878000000     4.344000000     4.015000000
H    -2.212000000     5.023000000     4.121000000
H    -3.521000000     4.730000000     3.420000000
O    -4.289000000    -4.126000000     3.847000000
H    -3.367000000    -3.923000000     3.684000000
H    -4.661000000    -3.305000000     4.169000000
O     4.520000000     4.612000000    -0.510000000
H     3.684000000     4.150000000    -0.441000000
H     5.177000000     3.916000000    -0.522000000
