158
-3025.79304
C    -1.303000000     0.648000000    -0.569000000
H    -2.317000000     0.957000000    -0.810000000
C    -1.070000000    -0.708000000    -0.260000000
H    -1.732000000    -1.570000000    -0.250000000
C     0.198000000    -1.169000000     0.114000000
H     0.303000000    -2.199000000     0.230000000
C     1.256000000    -0.315000000     0.259000000
H     2.196000000    -0.571000000     0.743000000
C     1.040000000     1.009000000     0.073000000
H     1.797000000     1.744000000     0.335000000
C    -0.237000000     1.539000000    -0.315000000
C    -0.444000000     3.011000000    -0.489000000
O    -1.465000000     3.372000000    -1.000000000
O     0.428000000     3.793000000    -0.190000000
O    -1.967000000    -5.647000000    -4.440000000
H    -1.229000000    -5.255000000    -3.974000000
H    -2.009000000    -6.545000000    -4.109000000
O     4.559000000     5.520000000     2.384000000
H     4.250000000     5.254000000     1.518000000
H     5.349000000     4.999000000     2.526000000
O    -2.814000000     6.292000000     0.222000000
H    -3.104000000     5.382000000     0.275000000
H    -2.383000000     6.357000000    -0.630000000
O    -5.398000000    -0.054000000     0.259000000
H    -5.525000000     0.076000000    -0.680000000
H    -5.458000000    -1.001000000     0.381000000
O     0.949000000     4.646000000    -2.676000000
H     0.515000000     4.737000000    -1.828000000
H     1.397000000     3.802000000    -2.626000000
O     5.009000000    -1.271000000     0.166000000
H     5.878000000    -1.170000000    -0.221000000
H     4.550000000    -1.866000000    -0.427000000
O     3.362000000     1.914000000     3.128000000
H     2.452000000     2.211000000     3.163000000
H     3.851000000     2.582000000     3.608000000
O    -3.024000000    -5.236000000     2.942000000
H    -2.125000000    -4.907000000     2.916000000
H    -3.016000000    -5.999000000     2.364000000
O     3.811000000    -6.239000000     0.571000000
H     4.069000000    -5.988000000     1.458000000
H     3.436000000    -7.114000000     0.669000000
O    -1.846000000     2.587000000    -3.690000000
H    -2.787000000     2.730000000    -3.789000000
H    -1.637000000     2.957000000    -2.832000000
O     6.274000000    -5.053000000    -0.293000000
H     5.395000000    -4.774000000    -0.549000000
H     6.188000000    -5.991000000    -0.124000000
O    -4.374000000     3.009000000    -4.218000000
H    -4.435000000     3.522000000    -5.024000000
H    -5.162000000     2.465000000    -4.220000000
O    -3.924000000     3.573000000     0.069000000
H    -3.095000000     3.457000000    -0.396000000
H    -4.568000000     3.723000000    -0.624000000
O     0.263000000    -1.325000000    -2.898000000
H    -0.673000000    -1.511000000    -2.971000000
H     0.325000000    -0.675000000    -2.198000000
O    -0.587000000     4.560000000    -5.887000000
H     0.083000000     3.877000000    -5.876000000
H    -0.938000000     4.565000000    -4.997000000
O    -2.353000000    -2.378000000    -2.972000000
H    -2.127000000    -2.522000000    -3.891000000
H    -3.289000000    -2.177000000    -2.984000000
O    -5.638000000    -2.994000000     0.715000000
H    -5.819000000    -3.435000000     1.545000000
H    -4.687000000    -3.041000000     0.620000000
O    -2.095000000     5.693000000    -2.527000000
H    -1.608000000     4.878000000    -2.403000000
H    -2.151000000     5.797000000    -3.476000000
O     5.924000000    -0.427000000     3.627000000
H     5.883000000    -0.423000000     4.583000000
H     5.031000000    -0.227000000     3.347000000
O     2.911000000    -3.932000000    -0.428000000
H     2.404000000    -3.554000000     0.291000000
H     3.046000000    -4.845000000    -0.171000000
O    -3.254000000    -0.216000000     2.117000000
H    -3.770000000    -0.901000000     2.543000000
H    -3.719000000    -0.039000000     1.300000000
O     4.636000000     1.534000000     0.640000000
H     4.387000000     1.674000000     1.554000000
H     4.911000000     0.618000000     0.604000000
O    -5.098000000    -2.108000000    -2.562000000
H    -5.197000000    -2.961000000    -2.138000000
H    -5.904000000    -1.996000000    -3.066000000
O     0.583000000    -4.546000000    -4.874000000
H     1.067000000    -4.123000000    -4.164000000
H     0.445000000    -3.850000000    -5.517000000
O    -7.334000000     2.238000000     0.198000000
H    -6.632000000     2.816000000    -0.100000000
H    -6.884000000     1.445000000     0.489000000
O     0.515000000     6.759000000    -0.143000000
H     0.512000000     6.937000000     0.798000000
H     0.662000000     5.815000000    -0.207000000
O     1.922000000    -3.266000000     2.107000000
H     2.301000000    -4.069000000     2.466000000
H     2.276000000    -2.567000000     2.656000000
O    -5.967000000     3.578000000    -1.796000000
H    -5.575000000     3.248000000    -2.604000000
H    -6.670000000     4.157000000    -2.089000000
O    -3.964000000    -5.103000000    -2.067000000
H    -3.736000000    -4.647000000    -1.256000000
H    -3.223000000    -4.938000000    -2.650000000
O    -3.009000000    -3.655000000     0.408000000
H    -2.301000000    -4.260000000     0.189000000
H    -2.902000000    -3.491000000     1.345000000
O     0.643000000     2.529000000     3.499000000
H     0.228000000     3.272000000     3.062000000
H     0.006000000     1.819000000     3.420000000
O     1.951000000     8.478000000    -1.623000000
H     2.229000000     7.852000000    -2.292000000
H     1.293000000     8.006000000    -1.112000000
O    -1.217000000    -5.868000000     0.425000000
H    -0.518000000    -5.838000000     1.077000000
H    -1.688000000    -6.679000000     0.615000000
O    -0.614000000     0.216000000     3.099000000
H     0.025000000     0.142000000     2.391000000
H    -1.463000000     0.119000000     2.667000000
O     2.087000000    -3.478000000    -2.968000000
H     2.197000000    -3.657000000    -2.034000000
H     1.510000000    -2.715000000    -2.999000000
O    -0.403000000     4.665000000     2.093000000
H    -0.426000000     4.746000000     1.140000000
H    -1.319000000     4.738000000     2.362000000
O    -1.256000000     8.905000000    -0.270000000
H    -1.734000000     8.656000000    -1.060000000
H    -0.869000000     8.088000000     0.044000000
O    -0.807000000    -3.328000000     2.746000000
H    -0.002000000    -3.521000000     2.267000000
H    -0.707000000    -2.419000000     3.027000000
O     2.611000000    -1.122000000     4.027000000
H     2.254000000    -0.243000000     4.154000000
H     2.875000000    -1.402000000     4.903000000
O     0.630000000    -6.433000000     2.111000000
H     0.758000000    -6.226000000     3.037000000
H     1.490000000    -6.726000000     1.810000000
O     0.370000000    -5.050000000     4.869000000
H    -0.336000000    -4.679000000     4.339000000
H     0.966000000    -4.316000000     5.021000000
O     5.458000000     2.888000000    -1.846000000
H     5.152000000     2.488000000    -1.032000000
H     4.672000000     3.271000000    -2.235000000
O     4.440000000     5.983000000    -1.454000000
H     3.757000000     6.358000000    -2.010000000
H     4.120000000     6.110000000    -0.561000000
O     2.813000000     4.290000000     0.729000000
H     3.202000000     3.508000000     1.122000000
H     1.919000000     4.027000000     0.508000000
O     2.390000000     6.721000000    -3.679000000
H     2.164000000     6.788000000    -4.606000000
H     1.799000000     6.050000000    -3.336000000
O    -1.470000000     0.452000000    -5.553000000
H    -2.395000000     0.204000000    -5.570000000
H    -1.407000000     1.092000000    -4.844000000
O    -4.746000000     4.432000000     2.647000000
H    -4.321000000     4.032000000     1.888000000
H    -5.327000000     3.750000000     2.983000000
O     1.929000000     5.391000000     3.685000000
H     1.294000000     4.920000000     3.146000000
H     2.467000000     5.873000000     3.057000000
