158
-2966.40422
C    -1.012000000     0.953000000    -0.412000000
H    -1.811000000     1.548000000    -0.847000000
C    -1.206000000    -0.461000000    -0.283000000
H    -2.211000000    -0.849000000    -0.427000000
C    -0.211000000    -1.233000000     0.162000000
H    -0.410000000    -2.265000000     0.322000000
C     1.061000000    -0.664000000     0.473000000
H     1.817000000    -1.333000000     0.876000000
C     1.228000000     0.751000000     0.287000000
H     2.167000000     1.274000000     0.447000000
C     0.231000000     1.564000000    -0.195000000
C     0.539000000     3.038000000    -0.379000000
O    -0.316000000     3.719000000    -0.900000000
O     1.521000000     3.573000000     0.009000000
O    -2.927000000    -5.317000000     4.848000000
H    -2.453000000    -5.296000000     4.017000000
H    -3.404000000    -4.487000000     4.872000000
O    -2.008000000     6.688000000     1.853000000
H    -2.396000000     7.562000000     1.838000000
H    -1.780000000     6.511000000     0.941000000
O    -5.707000000    -0.906000000     1.175000000
H    -5.329000000    -1.653000000     0.710000000
H    -5.798000000    -0.228000000     0.505000000
O     3.548000000     5.206000000    -2.911000000
H     2.628000000     5.410000000    -2.747000000
H     3.810000000     4.663000000    -2.167000000
O    -3.012000000    -4.315000000    -2.266000000
H    -2.100000000    -4.597000000    -2.336000000
H    -3.277000000    -4.134000000    -3.168000000
O     5.084000000    -1.893000000    -0.163000000
H     4.723000000    -1.795000000    -1.044000000
H     4.675000000    -2.689000000     0.177000000
O    -1.357000000    -5.772000000     2.249000000
H    -1.174000000    -6.645000000     1.902000000
H    -0.512000000    -5.460000000     2.572000000
O     4.270000000    -4.462000000     1.125000000
H     5.006000000    -4.187000000     1.671000000
H     3.848000000    -5.160000000     1.626000000
O    -1.757000000     2.782000000    -3.077000000
H    -2.632000000     3.106000000    -2.867000000
H    -1.216000000     3.054000000    -2.335000000
O    -2.545000000     1.495000000     3.543000000
H    -2.595000000     0.766000000     2.925000000
H    -3.455000000     1.770000000     3.663000000
O    -4.030000000     3.785000000    -3.105000000
H    -4.924000000     3.452000000    -3.033000000
H    -4.028000000     4.292000000    -3.917000000
O    -1.536000000     5.847000000    -0.635000000
H    -1.080000000     5.087000000    -0.995000000
H    -2.459000000     5.593000000    -0.629000000
O     0.833000000    -1.071000000    -2.741000000
H    -0.073000000    -1.035000000    -3.047000000
H     0.805000000    -0.691000000    -1.863000000
O    -6.025000000     0.197000000    -1.530000000
H    -6.387000000    -0.389000000    -2.194000000
H    -6.087000000     1.069000000    -1.920000000
O    -4.620000000    -0.189000000    -3.972000000
H    -5.437000000    -0.688000000    -3.981000000
H    -4.509000000     0.070000000    -3.057000000
O    -4.170000000    -2.989000000     4.757000000
H    -4.769000000    -2.244000000     4.782000000
H    -3.817000000    -2.984000000     3.868000000
O    -1.999000000     8.958000000    -1.211000000
H    -1.602000000     8.087000000    -1.228000000
H    -2.789000000     8.871000000    -1.744000000
O    -0.111000000     2.550000000     3.890000000
H    -0.986000000     2.163000000     3.904000000
H    -0.226000000     3.418000000     4.274000000
O     1.099000000     5.813000000    -1.957000000
H     0.615000000     4.998000000    -1.824000000
H     1.216000000     6.169000000    -1.076000000
O     6.867000000    -1.101000000     1.475000000
H     6.358000000    -0.983000000     2.276000000
H     6.224000000    -1.371000000     0.820000000
O     3.402000000    -4.513000000    -1.818000000
H     4.340000000    -4.325000000    -1.824000000
H     3.178000000    -4.590000000    -0.891000000
O     2.230000000     3.270000000     2.750000000
H     1.664000000     3.425000000     1.994000000
H     1.630000000     3.011000000     3.450000000
O    -3.042000000    -3.375000000     2.027000000
H    -3.385000000    -2.967000000     1.232000000
H    -2.780000000    -4.254000000     1.752000000
O     4.663000000     2.740000000    -1.506000000
H     4.369000000     2.851000000    -0.602000000
H     4.896000000     1.813000000    -1.569000000
O    -0.421000000    -2.289000000     6.024000000
H     0.010000000    -1.963000000     6.815000000
H     0.281000000    -2.345000000     5.375000000
O    -4.331000000    -2.820000000    -0.481000000
H    -3.847000000    -3.485000000    -0.970000000
H    -5.139000000    -2.696000000    -0.979000000
O    -0.562000000    -4.306000000    -4.733000000
H    -0.263000000    -3.874000000    -3.933000000
H    -0.857000000    -3.591000000    -5.296000000
O    -4.953000000     2.877000000     1.480000000
H    -5.070000000     2.837000000     2.429000000
H    -5.841000000     2.817000000     1.126000000
O     2.062000000     8.658000000    -0.306000000
H     2.767000000     9.277000000    -0.117000000
H     2.223000000     7.922000000     0.285000000
O     4.339000000    -2.703000000     3.856000000
H     4.530000000    -1.850000000     4.246000000
H     5.059000000    -2.854000000     3.244000000
O    -3.924000000     4.625000000    -0.450000000
H    -3.776000000     4.058000000    -1.206000000
H    -4.092000000     4.021000000     0.274000000
O    -0.546000000    -5.285000000    -1.250000000
H    -0.882000000    -6.154000000    -1.031000000
H     0.270000000    -5.211000000    -0.755000000
O     1.126000000    -6.338000000     0.740000000
H     1.878000000    -6.602000000     1.270000000
H     0.601000000    -7.133000000     0.655000000
O     3.572000000     2.457000000    -4.475000000
H     3.342000000     2.982000000    -3.708000000
H     2.803000000     1.907000000    -4.628000000
O     1.465000000     0.366000000    -5.102000000
H     1.987000000    -0.363000000    -5.438000000
H     0.835000000    -0.043000000    -4.509000000
O     0.960000000    -5.385000000     3.636000000
H     1.176000000    -4.500000000     3.930000000
H     1.565000000    -5.551000000     2.913000000
O     1.079000000    -0.270000000     3.861000000
H     1.125000000     0.624000000     3.521000000
H     0.161000000    -0.519000000     3.760000000
O     3.391000000    -1.836000000    -3.079000000
H     3.489000000    -2.788000000    -3.097000000
H     2.457000000    -1.694000000    -2.927000000
O     1.331000000     6.171000000     0.849000000
H     1.265000000     5.223000000     0.736000000
H     0.526000000     6.415000000     1.305000000
O    -4.276000000    -6.646000000    -1.570000000
H    -4.992000000    -6.405000000    -2.157000000
H    -3.648000000    -5.927000000    -1.650000000
O     1.708000000    -2.771000000     4.671000000
H     2.555000000    -3.160000000     4.455000000
H     1.758000000    -1.880000000     4.326000000
O     3.944000000     4.534000000     0.542000000
H     3.104000000     4.213000000     0.214000000
H     3.885000000     4.432000000     1.492000000
O    -1.851000000     4.555000000    -5.746000000
H    -2.026000000     3.838000000    -6.355000000
H    -2.026000000     4.183000000    -4.881000000
O     0.355000000     6.574000000    -4.865000000
H    -0.586000000     6.421000000    -4.944000000
H     0.512000000     6.622000000    -3.922000000
O     5.066000000     0.294000000    -3.204000000
H     4.327000000    -0.293000000    -3.048000000
H     4.757000000     0.894000000    -3.883000000
O    -1.740000000     0.308000000    -4.213000000
H    -1.523000000     1.138000000    -3.789000000
H    -2.697000000     0.283000000    -4.214000000
O    -1.522000000    -1.020000000     2.752000000
H    -1.957000000    -1.830000000     2.485000000
H    -1.012000000    -0.758000000     1.985000000
O     3.684000000     7.170000000     2.029000000
H     3.424000000     6.372000000     1.570000000
H     4.518000000     7.416000000     1.628000000
