158
-3036.03618
C    -1.130000000     0.903000000    -0.306000000
H    -2.053000000     1.441000000    -0.509000000
C    -1.214000000    -0.409000000     0.125000000
H    -2.179000000    -0.831000000     0.393000000
C    -0.088000000    -1.135000000     0.440000000
H    -0.186000000    -2.077000000     1.048000000
C     1.190000000    -0.590000000     0.198000000
H     2.013000000    -1.218000000     0.530000000
C     1.340000000     0.751000000    -0.234000000
H     2.361000000     1.070000000    -0.429000000
C     0.099000000     1.502000000    -0.466000000
C     0.251000000     2.778000000    -1.143000000
O    -0.635000000     3.618000000    -1.119000000
O     1.329000000     3.111000000    -1.556000000
O     3.873000000    -1.895000000     1.848000000
H     4.066000000    -1.001000000     2.130000000
H     4.604000000    -2.129000000     1.277000000
O    -4.964000000    -1.905000000     0.570000000
H    -5.508000000    -2.421000000     1.165000000
H    -4.896000000    -2.443000000    -0.219000000
O    -0.824000000     6.747000000    -3.179000000
H    -1.127000000     6.396000000    -2.342000000
H     0.091000000     6.470000000    -3.237000000
O    -2.937000000     4.418000000    -2.233000000
H    -3.038000000     4.310000000    -3.179000000
H    -2.080000000     4.039000000    -2.039000000
O    -5.002000000     0.152000000     2.306000000
H    -5.548000000     0.627000000     1.680000000
H    -4.826000000    -0.688000000     1.882000000
O     4.707000000    -0.345000000    -3.314000000
H     4.234000000     0.466000000    -3.127000000
H     5.008000000    -0.244000000    -4.217000000
O    -7.493000000    -0.942000000    -0.688000000
H    -7.448000000    -1.386000000     0.158000000
H    -6.579000000    -0.807000000    -0.937000000
O    -4.176000000     1.011000000    -2.464000000
H    -3.360000000     1.335000000    -2.843000000
H    -4.210000000     0.089000000    -2.720000000
O     5.705000000    -2.252000000    -0.272000000
H     6.150000000    -1.938000000    -1.060000000
H     6.224000000    -3.004000000     0.013000000
O     4.417000000    -3.023000000     4.568000000
H     4.823000000    -2.789000000     3.733000000
H     4.366000000    -2.198000000     5.049000000
O     1.171000000    -5.469000000    -0.640000000
H     1.705000000    -6.086000000    -1.139000000
H     0.443000000    -5.254000000    -1.224000000
O    -2.117000000    -2.426000000     3.979000000
H    -1.638000000    -3.208000000     4.254000000
H    -1.901000000    -1.768000000     4.640000000
O     0.798000000     1.632000000    -3.927000000
H     1.158000000     1.848000000    -4.788000000
H     1.157000000     2.300000000    -3.343000000
O    -3.563000000    -5.460000000     0.527000000
H    -2.986000000    -4.734000000     0.289000000
H    -3.085000000    -6.244000000     0.256000000
O     2.473000000     4.408000000    -5.159000000
H     3.155000000     4.716000000    -5.755000000
H     1.657000000     4.539000000    -5.642000000
O    -0.108000000    -5.760000000     1.866000000
H     0.238000000    -5.362000000     1.067000000
H    -0.099000000    -6.700000000     1.689000000
O    -4.852000000    -1.773000000    -3.179000000
H    -5.390000000    -2.505000000    -2.877000000
H    -3.959000000    -2.118000000    -3.183000000
O     1.728000000     5.882000000     1.479000000
H     2.104000000     6.320000000     2.243000000
H     1.583000000     6.585000000     0.847000000
O    -2.001000000     1.823000000    -4.117000000
H    -1.046000000     1.895000000    -4.129000000
H    -2.307000000     2.634000000    -4.523000000
O     3.238000000    -3.604000000    -2.228000000
H     2.811000000    -3.870000000    -1.414000000
H     3.990000000    -3.083000000    -1.946000000
O     0.697000000     8.230000000     0.303000000
H     0.097000000     7.620000000    -0.128000000
H     0.849000000     8.915000000    -0.348000000
O     7.327000000     1.292000000    -0.883000000
H     6.929000000     0.774000000    -1.582000000
H     6.626000000     1.405000000    -0.241000000
O    -1.015000000    -4.231000000    -1.962000000
H    -1.777000000    -4.066000000    -2.518000000
H    -0.739000000    -3.363000000    -1.669000000
O     1.512000000     5.446000000    -2.784000000
H     1.772000000     5.039000000    -3.610000000
H     1.289000000     4.709000000    -2.214000000
O    -3.278000000     2.317000000     1.930000000
H    -3.779000000     2.126000000     1.137000000
H    -3.772000000     1.894000000     2.633000000
O     1.617000000    -1.938000000     3.840000000
H     2.474000000    -2.007000000     3.420000000
H     1.033000000    -2.445000000     3.277000000
O     0.267000000    -6.129000000    -3.547000000
H     0.076000000    -5.989000000    -4.475000000
H    -0.408000000    -5.631000000    -3.086000000
O    -4.715000000     4.943000000     2.754000000
H    -5.567000000     4.516000000     2.844000000
H    -4.313000000     4.518000000     1.996000000
O    -4.829000000    -3.346000000     3.690000000
H    -4.850000000    -2.873000000     4.521000000
H    -3.958000000    -3.169000000     3.335000000
O     0.509000000    -0.905000000    -2.680000000
H     0.717000000    -0.626000000    -1.788000000
H     0.670000000    -0.129000000    -3.217000000
O    -5.008000000     1.946000000     0.116000000
H    -5.315000000     2.846000000     0.007000000
H    -4.766000000     1.667000000    -0.767000000
O     0.709000000     3.837000000     3.220000000
H     0.459000000     4.527000000     2.606000000
H     0.209000000     3.071000000     2.937000000
O     0.024000000     0.873000000     2.867000000
H    -0.701000000     0.756000000     2.254000000
H     0.411000000     0.002000000     2.950000000
O     5.300000000     1.695000000     0.686000000
H     4.585000000     2.276000000     0.426000000
H     5.037000000     1.361000000     1.544000000
O    -1.289000000     4.263000000     1.480000000
H    -1.082000000     3.960000000     0.596000000
H    -2.086000000     3.788000000     1.716000000
O    -0.735000000     6.207000000    -0.506000000
H    -0.515000000     5.289000000    -0.664000000
H    -1.207000000     6.200000000     0.327000000
O     3.213000000     3.831000000     0.145000000
H     2.502000000     3.461000000    -0.378000000
H     2.790000000     4.501000000     0.683000000
O     4.554000000     4.012000000    -2.569000000
H     3.979000000     3.695000000    -1.873000000
H     4.872000000     4.858000000    -2.251000000
O    -3.989000000    -5.839000000     3.162000000
H    -3.916000000    -5.772000000     2.210000000
H    -4.585000000    -5.131000000     3.407000000
O     3.575000000    -4.530000000     0.680000000
H     2.766000000    -5.036000000     0.607000000
H     3.377000000    -3.855000000     1.328000000
O    -0.143000000    -4.670000000     4.619000000
H    -0.095000000    -5.220000000     3.837000000
H     0.652000000    -4.879000000     5.108000000
O     3.340000000     7.290000000    -3.253000000
H     2.681000000     6.658000000    -2.963000000
H     3.062000000     7.538000000    -4.134000000
O     1.656000000     0.049000000     5.799000000
H     2.025000000     0.839000000     5.403000000
H     1.692000000    -0.607000000     5.103000000
O     5.151000000     2.358000000    -4.906000000
H     6.015000000     2.013000000    -4.682000000
H     4.852000000     2.791000000    -4.106000000
O    -4.646000000     4.747000000    -0.064000000
H    -4.766000000     5.696000000    -0.080000000
H    -4.043000000     4.569000000    -0.786000000
O    -3.974000000     0.260000000     5.085000000
H    -4.280000000     0.035000000     4.207000000
H    -4.368000000     1.113000000     5.265000000
O    -2.075000000    -2.313000000    -3.911000000
H    -1.227000000    -2.220000000    -3.478000000
H    -2.089000000    -1.613000000    -4.564000000
O     4.561000000     0.653000000     3.222000000
H     4.106000000     1.415000000     3.580000000
H     5.184000000     0.403000000     3.905000000
