158
-3005.59796
C    -1.204000000     0.132000000    -0.812000000
H    -2.141000000     0.162000000    -1.363000000
C    -1.099000000    -0.622000000     0.338000000
H    -1.984000000    -1.206000000     0.578000000
C     0.118000000    -0.821000000     0.966000000
H     0.226000000    -1.609000000     1.731000000
C     1.172000000    -0.012000000     0.531000000
H     2.114000000    -0.185000000     1.044000000
C     1.075000000     0.873000000    -0.518000000
H     1.939000000     1.444000000    -0.847000000
C    -0.131000000     0.977000000    -1.200000000
C    -0.360000000     2.114000000    -2.234000000
O    -1.440000000     2.399000000    -2.671000000
O     0.523000000     2.851000000    -2.564000000
O     4.943000000    -0.955000000    -1.096000000
H     5.477000000    -1.155000000    -1.865000000
H     5.470000000    -0.335000000    -0.593000000
O     2.712000000    -5.795000000    -1.497000000
H     2.503000000    -4.969000000    -1.060000000
H     2.698000000    -5.582000000    -2.430000000
O     2.787000000    -2.050000000     4.003000000
H     3.199000000    -1.633000000     3.246000000
H     3.443000000    -1.989000000     4.697000000
O    -1.980000000     6.888000000    -0.354000000
H    -1.828000000     6.984000000    -1.294000000
H    -1.933000000     5.945000000    -0.198000000
O    -1.051000000     4.508000000    -4.371000000
H    -0.908000000     3.874000000    -3.668000000
H    -1.797000000     4.160000000    -4.859000000
O     2.506000000     0.428000000    -5.084000000
H     1.960000000     0.561000000    -5.858000000
H     2.458000000     1.259000000    -4.611000000
O    -6.370000000     0.045000000     2.176000000
H    -5.513000000    -0.021000000     1.754000000
H    -6.444000000     0.967000000     2.423000000
O     3.222000000    -2.156000000    -3.464000000
H     3.651000000    -2.168000000    -4.320000000
H     3.248000000    -1.237000000    -3.196000000
O    -4.896000000    -1.062000000    -0.385000000
H    -4.746000000    -0.600000000    -1.210000000
H    -4.075000000    -1.526000000    -0.218000000
O     2.698000000    -3.187000000    -0.862000000
H     3.315000000    -2.713000000    -0.305000000
H     2.978000000    -2.986000000    -1.755000000
O     1.455000000    -4.327000000     3.336000000
H     1.985000000    -3.654000000     3.763000000
H     1.810000000    -5.154000000     3.663000000
O    -4.680000000    -3.718000000     1.388000000
H    -4.833000000    -3.759000000     2.332000000
H    -5.406000000    -3.194000000     1.051000000
O     2.281000000     3.298000000    -4.199000000
H     1.458000000     3.167000000    -3.728000000
H     2.839000000     3.771000000    -3.581000000
O    -5.000000000     4.760000000    -1.723000000
H    -4.175000000     4.826000000    -1.241000000
H    -4.850000000     5.263000000    -2.523000000
O    -0.216000000    -3.538000000    -4.009000000
H    -0.061000000    -2.917000000    -3.298000000
H     0.445000000    -4.218000000    -3.881000000
O    -4.412000000     0.755000000    -2.490000000
H    -5.053000000     0.782000000    -3.201000000
H    -3.775000000     1.433000000    -2.716000000
O     0.253000000     6.302000000    -6.062000000
H    -0.295000000     7.075000000    -6.193000000
H    -0.325000000     5.666000000    -5.640000000
O    -2.219000000    -4.331000000    -0.255000000
H    -2.602000000    -4.707000000     0.538000000
H    -1.308000000    -4.155000000    -0.020000000
O    -3.721000000     0.654000000    -6.342000000
H    -2.889000000     0.987000000    -6.004000000
H    -4.385000000     1.050000000    -5.777000000
O    -1.252000000     1.595000000    -5.522000000
H    -0.770000000     1.870000000    -6.301000000
H    -0.928000000     2.167000000    -4.826000000
O     0.369000000    -2.087000000    -1.975000000
H     1.306000000    -2.106000000    -1.782000000
H    -0.001000000    -1.509000000    -1.307000000
O     0.598000000     4.432000000     1.147000000
H     0.069000000     3.649000000     1.293000000
H     0.262000000     5.069000000     1.777000000
O     2.054000000     0.839000000     6.465000000
H     1.781000000     0.490000000     5.616000000
H     2.909000000     1.234000000     6.297000000
O     5.360000000     3.030000000    -1.468000000
H     4.617000000     3.596000000    -1.680000000
H     4.967000000     2.268000000    -1.044000000
O    -3.196000000    -4.428000000    -3.615000000
H    -2.572000000    -4.762000000    -2.971000000
H    -2.829000000    -3.588000000    -3.891000000
O    -0.855000000     6.843000000    -2.709000000
H    -0.272000000     6.356000000    -2.126000000
H    -1.099000000     6.212000000    -3.386000000
O    -0.898000000     2.174000000     5.425000000
H    -1.078000000     1.269000000     5.678000000
H    -0.112000000     2.119000000     4.881000000
O    -5.760000000     2.228000000    -5.260000000
H    -5.082000000     2.904000000    -5.272000000
H    -6.106000000     2.220000000    -6.152000000
O     2.759000000     6.972000000    -4.773000000
H     1.968000000     6.452000000    -4.917000000
H     3.214000000     6.954000000    -5.615000000
O    -1.158000000    -3.813000000     3.261000000
H    -0.212000000    -3.935000000     3.344000000
H    -1.494000000    -4.682000000     3.041000000
O    -3.701000000     4.068000000    -5.758000000
H    -3.974000000     4.836000000    -5.256000000
H    -3.622000000     4.386000000    -6.657000000
O     4.394000000    -0.241000000     2.658000000
H     4.195000000     0.367000000     3.369000000
H     4.973000000     0.251000000     2.076000000
O    -4.532000000    -0.662000000     4.348000000
H    -4.914000000    -0.733000000     5.222000000
H    -5.162000000    -1.099000000     3.774000000
O     3.161000000     3.979000000    -6.879000000
H     3.732000000     3.285000000    -7.209000000
H     2.799000000     3.625000000    -6.067000000
O    -3.346000000     1.390000000     2.937000000
H    -4.028000000     2.060000000     2.973000000
H    -3.727000000     0.636000000     3.387000000
O     1.398000000     0.721000000     3.882000000
H     0.945000000    -0.097000000     4.089000000
H     1.575000000     0.666000000     2.943000000
O    -2.364000000     3.951000000    -0.372000000
H    -2.089000000     3.222000000    -0.927000000
H    -2.147000000     3.671000000     0.517000000
O     0.832000000     5.208000000    -1.433000000
H     0.618000000     4.448000000    -1.975000000
H     0.485000000     4.990000000    -0.568000000
O     2.067000000     7.566000000    -2.246000000
H     2.687000000     7.553000000    -2.975000000
H     1.609000000     6.727000000    -2.306000000
O     5.528000000    -3.914000000     0.536000000
H     5.597000000    -3.027000000     0.182000000
H     5.332000000    -3.787000000     1.464000000
O     0.547000000    -4.072000000     0.707000000
H     0.862000000    -4.099000000     1.610000000
H     1.277000000    -3.702000000     0.210000000
O    -0.358000000    -0.999000000     4.815000000
H    -0.916000000    -1.621000000     4.349000000
H    -0.234000000    -1.389000000     5.680000000
O     0.652000000    -6.739000000     1.246000000
H     1.524000000    -6.705000000     1.640000000
H     0.563000000    -5.903000000     0.789000000
O     3.400000000     4.689000000    -2.142000000
H     4.121000000     5.201000000    -1.776000000
H     2.625000000     4.996000000    -1.672000000
O    -2.591000000    -2.636000000     4.943000000
H    -2.117000000    -3.069000000     4.233000000
H    -3.467000000    -2.485000000     4.589000000
O     6.178000000     1.200000000     1.185000000
H     6.602000000     1.936000000     0.744000000
H     6.888000000     0.758000000     1.650000000
O    -2.575000000    -2.025000000    -4.526000000
H    -1.689000000    -1.800000000    -4.242000000
H    -3.047000000    -1.193000000    -4.525000000
O    -1.009000000     2.389000000     1.537000000
H    -1.772000000     1.941000000     1.902000000
H    -0.390000000     1.686000000     1.339000000
