158
-3035.15671
C    -0.650000000     0.612000000     1.165000000
H    -1.158000000     1.017000000     2.036000000
C    -0.642000000    -0.786000000     0.916000000
H    -0.960000000    -1.519000000     1.653000000
C     0.034000000    -1.177000000    -0.212000000
H     0.180000000    -2.260000000    -0.342000000
C     0.520000000    -0.260000000    -1.155000000
H     1.027000000    -0.570000000    -2.065000000
C     0.472000000     1.136000000    -0.899000000
H     0.961000000     1.807000000    -1.601000000
C    -0.065000000     1.558000000     0.292000000
C    -0.064000000     2.984000000     0.585000000
O    -0.884000000     3.406000000     1.333000000
O     0.820000000     3.656000000     0.067000000
O    -1.532000000    -6.729000000     0.277000000
H    -2.448000000    -6.955000000     0.113000000
H    -1.033000000    -7.409000000    -0.176000000
O    -2.160000000    -2.738000000     5.779000000
H    -1.448000000    -2.251000000     6.194000000
H    -1.721000000    -3.437000000     5.294000000
O     0.486000000    -3.309000000    -2.955000000
H     0.897000000    -4.095000000    -2.596000000
H    -0.450000000    -3.433000000    -2.795000000
O     5.030000000     5.714000000     1.688000000
H     4.478000000     4.938000000     1.792000000
H     4.506000000     6.312000000     1.156000000
O    -3.552000000     3.576000000     4.873000000
H    -4.148000000     3.727000000     4.139000000
H    -2.679000000     3.703000000     4.502000000
O     1.096000000    -5.747000000    -1.794000000
H     1.156000000    -6.411000000    -2.480000000
H     0.645000000    -6.187000000    -1.073000000
O     2.009000000     3.788000000    -4.450000000
H     1.739000000     2.876000000    -4.340000000
H     1.507000000     4.268000000    -3.793000000
O     3.588000000    -0.062000000    -2.856000000
H     3.940000000     0.769000000    -3.174000000
H     3.907000000    -0.128000000    -1.956000000
O    -4.822000000     5.754000000     0.515000000
H    -3.940000000     5.383000000     0.472000000
H    -5.277000000     5.215000000     1.162000000
O     1.823000000    -2.960000000     3.120000000
H     1.312000000    -2.204000000     3.411000000
H     1.214000000    -3.468000000     2.584000000
O     3.385000000    -6.090000000     1.542000000
H     3.081000000    -5.954000000     2.439000000
H     4.287000000    -6.396000000     1.639000000
O     2.392000000    -0.995000000    -6.585000000
H     1.647000000    -0.814000000    -6.012000000
H     2.937000000    -0.211000000    -6.524000000
O    -5.304000000     3.784000000     2.496000000
H    -6.252000000     3.755000000     2.367000000
H    -4.946000000     3.278000000     1.767000000
O     2.750000000     1.178000000     1.921000000
H     2.346000000     0.646000000     1.235000000
H     3.676000000     0.938000000     1.896000000
O    -0.051000000     8.283000000    -0.748000000
H    -0.447000000     8.686000000     0.025000000
H     0.056000000     7.362000000    -0.510000000
O    -4.495000000    -3.530000000     0.184000000
H    -3.762000000    -3.514000000     0.800000000
H    -4.091000000    -3.716000000    -0.664000000
O     3.250000000     3.637000000     1.304000000
H     3.240000000     2.901000000     1.916000000
H     2.353000000     3.682000000     0.971000000
O    -2.806000000     1.678000000    -1.529000000
H    -2.133000000     1.148000000    -1.101000000
H    -3.062000000     1.166000000    -2.296000000
O     1.474000000     5.386000000    -1.998000000
H     1.990000000     6.086000000    -1.598000000
H     1.427000000     4.708000000    -1.324000000
O     1.219000000    -6.097000000     4.086000000
H     1.127000000    -6.382000000     3.177000000
H     1.471000000    -6.889000000     4.561000000
O    -2.404000000     4.372000000    -1.774000000
H    -3.302000000     4.548000000    -2.057000000
H    -2.366000000     3.420000000    -1.678000000
O     1.444000000     1.084000000    -4.241000000
H     0.968000000     0.288000000    -4.479000000
H     2.166000000     0.776000000    -3.692000000
O    -0.937000000     3.799000000     3.994000000
H    -0.937000000     3.512000000     3.081000000
H    -0.204000000     4.411000000     4.053000000
O    -0.796000000     1.356000000     5.593000000
H    -1.550000000     0.948000000     5.168000000
H    -0.734000000     2.222000000     5.191000000
O     0.645000000    -4.788000000     1.526000000
H     1.540000000    -5.092000000     1.375000000
H     0.097000000    -5.544000000     1.319000000
O    -2.924000000    -4.328000000    -4.553000000
H    -3.157000000    -4.858000000    -5.316000000
H    -2.545000000    -3.531000000    -4.922000000
O     3.639000000    -5.040000000    -1.022000000
H     3.558000000    -5.524000000    -0.200000000
H     2.755000000    -5.042000000    -1.389000000
O    -1.178000000     7.371000000     2.701000000
H    -0.675000000     6.684000000     2.264000000
H    -1.959000000     7.479000000     2.158000000
O     1.144000000     6.052000000     1.515000000
H     1.055000000     5.247000000     1.005000000
H     1.250000000     5.754000000     2.418000000
O    -5.657000000     0.632000000     3.508000000
H    -5.394000000    -0.287000000     3.550000000
H    -4.833000000     1.116000000     3.459000000
O    -1.150000000     6.245000000    -3.467000000
H    -1.647000000     5.428000000    -3.419000000
H    -0.467000000     6.149000000    -2.804000000
O     4.983000000    -0.655000000    -0.566000000
H     4.802000000    -0.056000000     0.158000000
H     4.620000000    -1.493000000    -0.280000000
O     5.165000000     3.487000000    -0.975000000
H     5.220000000     4.443000000    -0.980000000
H     4.592000000     3.285000000    -0.235000000
O     4.268000000    -2.219000000    -4.302000000
H     4.068000000    -1.665000000    -3.547000000
H     4.271000000    -1.617000000    -5.046000000
O    -0.819000000     2.869000000    -5.825000000
H    -1.642000000     3.199000000    -5.463000000
H    -0.263000000     2.724000000    -5.059000000
O    -2.530000000    -4.899000000     1.914000000
H    -2.125000000    -5.592000000     1.392000000
H    -3.399000000    -5.238000000     2.128000000
O    -4.192000000    -6.503000000    -0.775000000
H    -4.487000000    -5.611000000    -0.593000000
H    -4.920000000    -6.904000000    -1.250000000
O    -3.669000000     2.553000000     0.760000000
H    -2.825000000     2.887000000     1.063000000
H    -3.532000000     2.362000000    -0.168000000
O    -2.499000000    -0.421000000     4.121000000
H    -3.125000000    -1.080000000     4.421000000
H    -1.805000000    -0.925000000     3.696000000
O     0.173000000    -1.159000000    -4.755000000
H     0.304000000    -1.757000000    -4.019000000
H    -0.707000000    -1.359000000    -5.072000000
O    -2.085000000     5.640000000     0.539000000
H    -1.855000000     5.516000000    -0.381000000
H    -1.649000000     4.921000000     0.995000000
O     4.669000000     2.515000000    -3.455000000
H     5.275000000     2.682000000    -2.733000000
H     3.894000000     3.037000000    -3.243000000
O     1.498000000     5.500000000     4.032000000
H     1.224000000     5.870000000     4.872000000
H     2.448000000     5.414000000     4.107000000
O     0.763000000    -0.621000000     3.937000000
H     0.208000000    -0.029000000     4.445000000
H     1.488000000    -0.073000000     3.638000000
O     3.729000000    -2.757000000     1.001000000
H     3.135000000    -2.936000000     1.730000000
H     3.614000000    -3.501000000     0.410000000
O    -2.860000000    -4.178000000    -1.824000000
H    -2.732000000    -5.120000000    -1.711000000
H    -3.063000000    -4.073000000    -2.753000000
O     2.842000000     7.038000000    -0.239000000
H     2.763000000     7.986000000    -0.134000000
H     2.267000000     6.673000000     0.435000000
O    -1.170000000    -4.713000000     4.312000000
H    -1.473000000    -4.735000000     3.404000000
H    -0.389000000    -5.267000000     4.317000000
