158
-3048.29978
C    -1.067000000     1.043000000    -0.004000000
H    -1.968000000     1.639000000     0.123000000
C    -1.048000000    -0.068000000    -0.819000000
H    -1.944000000    -0.422000000    -1.321000000
C    -0.057000000    -0.998000000    -0.669000000
H    -0.151000000    -2.019000000    -1.163000000
C     1.002000000    -0.710000000     0.179000000
H     1.682000000    -1.525000000     0.413000000
C     1.102000000     0.469000000     0.874000000
H     1.913000000     0.529000000     1.595000000
C     0.015000000     1.371000000     0.827000000
C     0.142000000     2.619000000     1.686000000
O    -0.815000000     3.283000000     1.940000000
O     1.264000000     3.076000000     1.806000000
O     3.378000000    -1.736000000    -2.586000000
H     2.567000000    -1.289000000    -2.831000000
H     3.851000000    -1.099000000    -2.051000000
O     2.478000000    -4.045000000    -1.238000000
H     2.939000000    -3.238000000    -1.465000000
H     1.717000000    -4.058000000    -1.818000000
O    -4.494000000    -0.923000000     0.058000000
H    -4.794000000    -1.280000000     0.893000000
H    -3.804000000    -1.524000000    -0.225000000
O    -5.493000000     1.884000000     3.321000000
H    -4.844000000     2.505000000     2.990000000
H    -5.351000000     1.872000000     4.268000000
O    -5.732000000     0.694000000    -4.581000000
H    -5.625000000     0.642000000    -5.531000000
H    -5.103000000     0.061000000    -4.234000000
O    -1.449000000     7.908000000     0.404000000
H    -1.872000000     7.651000000    -0.415000000
H    -1.712000000     7.234000000     1.031000000
O     5.330000000     0.231000000     3.049000000
H     6.236000000     0.073000000     3.315000000
H     5.398000000     0.852000000     2.324000000
O    -0.517000000    -2.700000000     1.905000000
H    -0.338000000    -3.007000000     2.794000000
H     0.060000000    -1.945000000     1.792000000
O    -2.687000000     1.156000000     4.524000000
H    -2.861000000     1.799000000     3.836000000
H    -1.833000000     1.407000000     4.874000000
O     1.261000000     7.923000000     1.938000000
H     0.465000000     8.220000000     1.496000000
H     1.274000000     6.976000000     1.796000000
O     5.992000000     2.484000000     1.513000000
H     6.453000000     2.690000000     0.700000000
H     5.064000000     2.524000000     1.280000000
O     0.231000000    -3.982000000    -2.831000000
H    -0.614000000    -4.022000000    -2.383000000
H     0.124000000    -4.547000000    -3.596000000
O    -2.424000000    -4.240000000    -2.152000000
H    -2.651000000    -3.705000000    -1.391000000
H    -3.266000000    -4.544000000    -2.490000000
O    -0.623000000    -1.304000000    -6.870000000
H    -0.667000000    -1.568000000    -5.950000000
H    -1.521000000    -1.055000000    -7.090000000
O    -3.576000000     2.416000000    -2.885000000
H    -4.101000000     2.795000000    -2.180000000
H    -2.888000000     3.063000000    -3.045000000
O     2.582000000     4.386000000    -1.768000000
H     1.723000000     4.758000000    -1.967000000
H     3.195000000     5.107000000    -1.912000000
O    -1.291000000     5.951000000     2.504000000
H    -1.760000000     5.840000000     3.331000000
H    -0.935000000     5.083000000     2.312000000
O    -3.208000000     3.367000000     2.714000000
H    -3.587000000     4.187000000     2.396000000
H    -2.306000000     3.380000000     2.394000000
O    -3.843000000    -2.154000000    -4.314000000
H    -4.136000000    -1.497000000    -3.681000000
H    -2.897000000    -2.021000000    -4.377000000
O    -1.603000000    -7.124000000    -1.994000000
H    -1.669000000    -6.178000000    -1.859000000
H    -1.489000000    -7.484000000    -1.114000000
O     3.649000000     2.728000000     0.177000000
H     2.959000000     2.759000000     0.841000000
H     3.360000000     3.344000000    -0.497000000
O     0.154000000    -6.400000000    -4.584000000
H     0.595000000    -7.205000000    -4.854000000
H    -0.124000000    -6.570000000    -3.684000000
O     4.150000000    -2.205000000     2.464000000
H     4.803000000    -1.551000000     2.714000000
H     4.552000000    -2.680000000     1.737000000
O     0.798000000     0.291000000    -3.214000000
H     1.098000000     1.193000000    -3.323000000
H     0.769000000     0.160000000    -2.266000000
O    -1.184000000    -1.415000000    -3.839000000
H    -0.608000000    -0.678000000    -3.634000000
H    -0.717000000    -2.183000000    -3.508000000
O     2.831000000     4.898000000     6.525000000
H     2.547000000     4.722000000     5.628000000
H     2.365000000     4.252000000     7.055000000
O    -2.556000000     1.027000000    -5.176000000
H    -2.637000000     1.822000000    -4.648000000
H    -2.130000000     0.396000000    -4.595000000
O    -0.816000000     3.221000000     4.698000000
H    -0.044000000     2.760000000     5.024000000
H    -0.773000000     3.118000000     3.747000000
O    -1.120000000     5.938000000     6.126000000
H    -0.809000000     5.035000000     6.063000000
H    -1.889000000     5.967000000     5.556000000
O     0.951000000    -5.179000000     0.826000000
H     1.504000000    -4.877000000     0.106000000
H     0.489000000    -4.394000000     1.119000000
O     1.543000000     1.917000000     5.508000000
H     1.420000000     1.017000000     5.808000000
H     2.487000000     1.998000000     5.375000000
O    -0.184000000     4.867000000    -1.020000000
H    -0.379000000     3.982000000    -0.712000000
H     0.456000000     5.203000000    -0.393000000
O     3.192000000     3.924000000     3.910000000
H     2.428000000     3.649000000     3.403000000
H     3.557000000     4.657000000     3.415000000
O     2.100000000    -1.995000000     4.338000000
H     2.649000000    -2.121000000     3.564000000
H     1.460000000    -2.705000000     4.295000000
O     4.455000000     1.891000000     5.545000000
H     4.456000000     1.220000000     4.863000000
H     4.236000000     2.701000000     5.084000000
O     1.981000000     5.603000000     1.011000000
H     2.812000000     5.669000000     0.541000000
H     1.835000000     4.662000000     1.110000000
O    -3.227000000     6.252000000     4.384000000
H    -3.255000000     7.209000000     4.360000000
H    -4.129000000     5.983000000     4.209000000
O     6.405000000    -0.973000000    -1.639000000
H     7.223000000    -0.479000000    -1.692000000
H     5.721000000    -0.303000000    -1.631000000
O     3.778000000     6.623000000     3.173000000
H     3.755000000     6.990000000     4.057000000
H     3.020000000     7.010000000     2.733000000
O    -5.113000000     3.022000000    -0.798000000
H    -4.573000000     3.692000000    -0.379000000
H    -5.804000000     2.839000000    -0.162000000
O    -2.526000000    -2.970000000     0.190000000
H    -3.117000000    -3.225000000     0.899000000
H    -1.684000000    -2.823000000     0.622000000
O    -6.663000000     0.777000000     0.897000000
H    -6.508000000     0.913000000     1.832000000
H    -5.803000000     0.548000000     0.543000000
O    -1.246000000    -7.750000000     0.697000000
H    -1.595000000    -8.052000000     1.535000000
H    -0.396000000    -7.367000000     0.915000000
O     4.370000000     0.867000000    -1.658000000
H     4.035000000     1.182000000    -2.497000000
H     4.104000000     1.537000000    -1.027000000
O    -1.811000000     4.326000000    -3.124000000
H    -2.398000000     5.040000000    -3.373000000
H    -1.144000000     4.743000000    -2.578000000
O     5.238000000    -2.773000000    -4.266000000
H     5.565000000    -3.470000000    -3.697000000
H     4.605000000    -2.300000000    -3.725000000
O     5.969000000    -2.764000000     0.475000000
H     6.851000000    -2.875000000     0.829000000
H     6.092000000    -2.234000000    -0.313000000
O    -4.214000000    -0.259000000    -2.528000000
H    -3.913000000     0.608000000    -2.797000000
H    -4.506000000    -0.141000000    -1.624000000
