158
-3057.68933
C    -0.785000000     1.171000000     0.491000000
H    -1.233000000     1.949000000     1.104000000
C    -0.902000000    -0.146000000     0.996000000
H    -1.469000000    -0.443000000     1.874000000
C    -0.014000000    -1.134000000     0.501000000
H    -0.012000000    -2.109000000     0.914000000
C     0.814000000    -0.832000000    -0.611000000
H     1.331000000    -1.624000000    -1.147000000
C     0.890000000     0.467000000    -1.124000000
H     1.373000000     0.716000000    -2.066000000
C     0.094000000     1.500000000    -0.570000000
C     0.225000000     2.860000000    -1.112000000
O    -0.708000000     3.636000000    -1.024000000
O     1.259000000     3.180000000    -1.589000000
O    -1.920000000    -5.033000000    -0.801000000
H    -2.745000000    -5.210000000    -0.348000000
H    -1.426000000    -4.484000000    -0.192000000
O     0.471000000    -3.319000000     6.176000000
H     0.678000000    -4.253000000     6.176000000
H     0.578000000    -3.050000000     5.264000000
O     3.517000000    -1.729000000     0.521000000
H     2.834000000    -1.186000000     0.913000000
H     3.050000000    -2.294000000    -0.095000000
O     4.644000000     1.967000000     1.595000000
H     5.299000000     1.826000000     2.278000000
H     4.036000000     1.234000000     1.691000000
O    -1.935000000    -0.946000000    -2.109000000
H    -2.733000000    -0.513000000    -1.805000000
H    -1.323000000    -0.860000000    -1.378000000
O    -4.165000000     1.344000000     2.848000000
H    -4.893000000     1.772000000     2.397000000
H    -3.459000000     1.989000000     2.828000000
O     0.266000000     3.602000000     3.103000000
H     1.160000000     3.761000000     2.800000000
H     0.178000000     2.649000000     3.097000000
O     2.593000000     3.498000000    -6.468000000
H     2.086000000     3.601000000    -5.662000000
H     3.320000000     2.926000000    -6.222000000
O     4.768000000     2.218000000    -5.386000000
H     4.389000000     1.617000000    -4.746000000
H     5.666000000     2.355000000    -5.084000000
O     4.000000000     0.073000000    -3.900000000
H     3.624000000     0.554000000    -3.163000000
H     4.432000000    -0.681000000    -3.499000000
O    -3.282000000     2.918000000    -0.857000000
H    -3.709000000     3.675000000    -0.457000000
H    -2.347000000     3.116000000    -0.808000000
O     0.543000000    -2.701000000     3.519000000
H     1.086000000    -3.348000000     3.068000000
H    -0.222000000    -2.596000000     2.954000000
O     0.814000000    -4.059000000    -2.800000000
H     1.321000000    -4.038000000    -1.988000000
H     0.599000000    -3.142000000    -2.972000000
O    -4.421000000     0.383000000    -0.359000000
H    -5.217000000     0.877000000    -0.164000000
H    -3.708000000     0.993000000    -0.170000000
O    -3.422000000     5.745000000    -4.007000000
H    -2.814000000     6.466000000    -3.844000000
H    -2.976000000     5.199000000    -4.656000000
O     5.288000000     4.675000000    -1.680000000
H     5.981000000     5.025000000    -2.241000000
H     5.754000000     4.186000000    -1.002000000
O     3.461000000     7.366000000     0.791000000
H     4.366000000     7.056000000     0.748000000
H     2.964000000     6.728000000     0.278000000
O    -3.791000000     5.723000000    -0.802000000
H    -3.118000000     6.386000000    -0.954000000
H    -3.988000000     5.377000000    -1.672000000
O     3.794000000     1.936000000    -1.774000000
H     4.436000000     2.629000000    -1.930000000
H     2.947000000     2.356000000    -1.923000000
O    -2.583000000     3.787000000     3.453000000
H    -1.632000000     3.687000000     3.506000000
H    -2.878000000     3.757000000     4.363000000
O     1.366000000     4.437000000    -4.096000000
H     1.391000000     3.929000000    -3.285000000
H     1.733000000     5.288000000    -3.857000000
O    -0.825000000    -7.443000000    -1.785000000
H    -1.003000000    -6.577000000    -1.420000000
H     0.076000000    -7.633000000    -1.526000000
O    -3.019000000    -2.570000000     4.676000000
H    -3.012000000    -3.374000000     5.195000000
H    -3.832000000    -2.130000000     4.926000000
O     5.015000000    -2.123000000     2.749000000
H     4.602000000    -2.181000000     1.887000000
H     5.448000000    -1.269000000     2.750000000
O    -0.594000000     7.481000000    -3.497000000
H    -0.465000000     6.891000000    -2.755000000
H     0.252000000     7.914000000    -3.609000000
O     1.721000000    -0.089000000    -5.697000000
H     1.124000000    -0.714000000    -5.287000000
H     2.520000000    -0.142000000    -5.173000000
O    -1.533000000     3.678000000    -4.803000000
H    -0.662000000     3.483000000    -4.457000000
H    -2.097000000     3.003000000    -4.424000000
O    -0.657000000     5.750000000     1.910000000
H    -0.371000000     4.897000000     2.237000000
H    -0.565000000     5.686000000     0.960000000
O     1.005000000     1.055000000     4.333000000
H     0.955000000     1.274000000     5.263000000
H     0.522000000     0.232000000     4.255000000
O     2.335000000    -4.386000000     2.329000000
H     2.494000000    -4.171000000     1.410000000
H     1.867000000    -5.221000000     2.302000000
O     2.770000000    -4.203000000    -0.844000000
H     2.909000000    -5.144000000    -0.744000000
H     3.259000000    -3.971000000    -1.634000000
O    -4.116000000     5.761000000     2.013000000
H    -3.907000000     5.847000000     1.082000000
H    -3.508000000     5.095000000     2.334000000
O     2.337000000     0.490000000     1.805000000
H     1.545000000     0.473000000     1.268000000
H     2.035000000     0.781000000     2.666000000
O     2.677000000     5.119000000    -0.603000000
H     3.508000000     4.791000000    -0.946000000
H     2.050000000     4.418000000    -0.783000000
O    -4.902000000    -0.518000000     4.889000000
H    -5.603000000    -0.118000000     5.404000000
H    -4.699000000     0.132000000     4.216000000
O     3.930000000    -3.972000000    -3.345000000
H     3.295000000    -3.816000000    -4.044000000
H     4.550000000    -3.247000000    -3.417000000
O    -4.289000000    -5.003000000     0.479000000
H    -4.579000000    -4.099000000     0.598000000
H    -5.056000000    -5.456000000     0.127000000
O    -2.017000000    -3.296000000     2.282000000
H    -2.885000000    -3.099000000     1.930000000
H    -1.998000000    -2.858000000     3.133000000
O    -3.325000000     2.170000000    -3.657000000
H    -3.746000000     2.458000000    -2.848000000
H    -3.403000000     1.216000000    -3.642000000
O    -1.441000000    -0.258000000     4.428000000
H    -2.269000000     0.216000000     4.503000000
H    -1.633000000    -1.132000000     4.767000000
O    -0.114000000    -1.708000000    -3.958000000
H    -0.854000000    -1.425000000    -3.421000000
H    -0.516000000    -2.083000000    -4.742000000
O    -0.172000000     6.169000000    -1.166000000
H     0.695000000     6.042000000    -0.782000000
H    -0.448000000     5.291000000    -1.430000000
O    -4.380000000    -2.484000000     0.916000000
H    -5.027000000    -2.490000000     1.622000000
H    -4.223000000    -1.556000000     0.743000000
O     4.274000000    -4.174000000     4.448000000
H     4.789000000    -3.690000000     3.802000000
H     3.457000000    -4.384000000     3.995000000
O     2.917000000     3.973000000     2.885000000
H     3.408000000     4.756000000     2.635000000
H     3.293000000     3.274000000     2.350000000
O     5.456000000    -0.183000000    -0.260000000
H     4.784000000     0.462000000    -0.477000000
H     4.968000000    -0.934000000     0.079000000
O    -3.593000000    -4.068000000    -3.325000000
H    -2.949000000    -3.868000000    -4.005000000
H    -3.100000000    -4.549000000    -2.661000000
O    -0.020000000    -5.794000000     1.495000000
H    -0.827000000    -5.420000000     1.850000000
H     0.136000000    -6.575000000     2.027000000
