158
-3049.00720
C    -0.887000000     0.962000000    -0.900000000
H    -1.481000000     1.577000000    -1.573000000
C    -0.712000000    -0.416000000    -1.128000000
H    -1.123000000    -0.883000000    -2.019000000
C     0.161000000    -1.161000000    -0.327000000
H     0.250000000    -2.264000000    -0.473000000
C     0.719000000    -0.605000000     0.874000000
H     1.230000000    -1.287000000     1.549000000
C     0.473000000     0.686000000     1.217000000
H     0.993000000     1.052000000     2.099000000
C    -0.306000000     1.478000000     0.326000000
C    -0.427000000     2.938000000     0.743000000
O    -0.914000000     3.767000000    -0.031000000
O     0.137000000     3.369000000     1.751000000
O     1.903000000     0.058000000    -2.715000000
H     1.303000000    -0.243000000    -2.032000000
H     2.713000000     0.265000000    -2.249000000
O     3.978000000    -3.858000000    -2.910000000
H     4.441000000    -3.052000000    -3.137000000
H     3.507000000    -3.646000000    -2.105000000
O     2.123000000    -1.844000000     5.748000000
H     2.213000000    -2.637000000     6.276000000
H     2.483000000    -2.083000000     4.893000000
O    -4.719000000    -1.604000000    -1.608000000
H    -4.343000000    -1.425000000    -0.746000000
H    -4.129000000    -2.248000000    -1.998000000
O    -3.903000000     3.351000000     2.215000000
H    -4.272000000     4.234000000     2.249000000
H    -3.826000000     3.160000000     1.280000000
O    -0.985000000     5.423000000    -2.054000000
H    -1.397000000     4.878000000    -2.724000000
H    -0.992000000     4.881000000    -1.265000000
O     4.388000000    -6.563000000    -3.406000000
H     3.986000000    -5.776000000    -3.038000000
H     4.746000000    -7.025000000    -2.648000000
O     5.980000000    -3.558000000     1.552000000
H     5.482000000    -3.650000000     0.740000000
H     6.555000000    -2.809000000     1.397000000
O     1.613000000    -4.508000000     1.654000000
H     1.306000000    -4.582000000     2.557000000
H     0.833000000    -4.265000000     1.155000000
O    -2.626000000     1.158000000     2.612000000
H    -3.175000000     1.942000000     2.599000000
H    -1.909000000     1.378000000     3.206000000
O     0.535000000     8.050000000     1.582000000
H    -0.227000000     7.537000000     1.851000000
H     1.054000000     7.447000000     1.050000000
O     0.649000000    -6.148000000    -4.870000000
H     0.796000000    -6.888000000    -5.459000000
H     1.428000000    -5.601000000    -4.972000000
O     0.579000000    -6.358000000    -1.935000000
H     0.664000000    -6.209000000    -2.876000000
H    -0.081000000    -5.726000000    -1.651000000
O    -2.137000000    -4.922000000    -1.814000000
H    -2.258000000    -5.514000000    -2.556000000
H    -2.360000000    -4.057000000    -2.159000000
O    -3.370000000    -0.992000000     0.829000000
H    -3.213000000    -0.143000000     1.243000000
H    -3.848000000    -1.495000000     1.489000000
O    -1.940000000     3.670000000    -3.817000000
H    -2.805000000     3.311000000    -4.014000000
H    -1.724000000     4.206000000    -4.579000000
O    -4.494000000     5.675000000    -0.625000000
H    -5.365000000     5.832000000    -0.989000000
H    -4.574000000     5.916000000     0.298000000
O    -1.409000000     6.219000000     1.573000000
H    -2.285000000     6.139000000     1.197000000
H    -0.974000000     5.397000000     1.347000000
O    -6.057000000     2.203000000     0.531000000
H    -6.411000000     2.964000000     0.992000000
H    -5.387000000     2.564000000    -0.048000000
O    -3.410000000     3.157000000    -0.519000000
H    -3.889000000     3.855000000    -0.967000000
H    -2.489000000     3.351000000    -0.692000000
O    -0.516000000    -2.716000000    -5.810000000
H    -0.209000000    -2.495000000    -4.931000000
H     0.267000000    -2.663000000    -6.358000000
O    -5.742000000     0.895000000    -2.111000000
H    -6.136000000     1.159000000    -1.279000000
H    -5.476000000    -0.014000000    -1.972000000
O     3.293000000     2.239000000    -0.513000000
H     3.442000000     3.029000000     0.007000000
H     2.873000000     2.554000000    -1.313000000
O     0.882000000     5.153000000     6.277000000
H     0.356000000     5.953000000     6.255000000
H     0.423000000     4.548000000     5.694000000
O     4.249000000    -0.255000000     0.975000000
H     5.028000000     0.254000000     1.201000000
H     3.821000000     0.255000000     0.287000000
O    -0.107000000     1.041000000    -4.365000000
H     0.060000000     1.948000000    -4.623000000
H     0.632000000     0.813000000    -3.800000000
O     2.737000000     6.745000000     4.764000000
H     2.917000000     6.191000000     4.004000000
H     2.200000000     6.198000000     5.337000000
O    -0.684000000     3.375000000     4.153000000
H    -0.197000000     2.610000000     4.458000000
H    -0.530000000     3.396000000     3.209000000
O    -1.310000000     6.048000000     4.488000000
H    -1.340000000     6.121000000     3.534000000
H    -1.487000000     5.124000000     4.664000000
O     3.015000000    -2.816000000    -0.399000000
H     3.328000000    -2.167000000     0.232000000
H     2.410000000    -3.364000000     0.101000000
O     0.264000000     0.538000000     4.738000000
H     1.143000000     0.187000000     4.885000000
H    -0.282000000    -0.236000000     4.598000000
O     1.659000000     3.462000000    -2.394000000
H     0.895000000     3.665000000    -1.854000000
H     1.298000000     3.276000000    -3.260000000
O     2.249000000     4.380000000     3.051000000
H     1.349000000     4.396000000     2.724000000
H     2.781000000     4.193000000     2.278000000
O     3.866000000    -2.646000000     3.500000000
H     3.893000000    -1.980000000     2.812000000
H     4.415000000    -3.356000000     3.167000000
O     4.344000000     3.411000000     4.974000000
H     4.871000000     3.036000000     4.268000000
H     3.444000000     3.361000000     4.653000000
O     1.218000000     5.765000000     0.046000000
H     0.717000000     6.099000000    -0.697000000
H     0.750000000     4.976000000     0.316000000
O    -1.014000000     8.206000000    -1.605000000
H    -1.260000000     7.311000000    -1.842000000
H    -1.820000000     8.593000000    -1.263000000
O     0.615000000    -5.007000000     4.009000000
H     0.141000000    -4.233000000     4.314000000
H    -0.030000000    -5.713000000     4.044000000
O    -4.532000000     2.569000000    -3.867000000
H    -5.182000000     2.872000000    -4.500000000
H    -5.047000000     2.298000000    -3.107000000
O    -0.934000000    -4.372000000     0.802000000
H    -1.601000000    -4.597000000     0.155000000
H    -1.336000000    -3.683000000     1.331000000
O    -1.247000000    -1.538000000     3.076000000
H    -2.035000000    -0.995000000     3.069000000
H    -0.768000000    -1.274000000     2.290000000
O    -2.010000000    -6.414000000    -4.310000000
H    -1.103000000    -6.173000000    -4.497000000
H    -2.092000000    -7.309000000    -4.640000000
O     3.653000000    -6.521000000     1.093000000
H     4.480000000    -6.294000000     1.517000000
H     3.065000000    -5.797000000     1.310000000
O     0.604000000     2.511000000     7.026000000
H     0.728000000     1.628000000     6.678000000
H     1.297000000     2.610000000     7.680000000
O    -1.399000000    -3.240000000     5.201000000
H    -1.326000000    -2.582000000     4.510000000
H    -1.817000000    -2.779000000     5.928000000
O    -2.776000000    -2.825000000    -3.534000000
H    -3.075000000    -2.072000000    -4.044000000
H    -2.180000000    -3.290000000    -4.121000000
O    -2.969000000     0.024000000    -5.024000000
H    -2.032000000    -0.169000000    -4.989000000
H    -3.097000000     0.713000000    -4.371000000
O     3.729000000     4.741000000     0.713000000
H     4.543000000     5.177000000     0.458000000
H     3.037000000     5.327000000     0.407000000
