158
-3030.37842
C    -1.239000000     0.604000000     0.457000000
H    -2.086000000     1.084000000     0.941000000
C    -0.749000000    -0.637000000     0.836000000
H    -1.357000000    -1.272000000     1.475000000
C     0.413000000    -1.125000000     0.298000000
H     0.793000000    -2.159000000     0.517000000
C     1.136000000    -0.375000000    -0.548000000
H     2.063000000    -0.685000000    -1.022000000
C     0.675000000     0.875000000    -0.989000000
H     1.253000000     1.465000000    -1.695000000
C    -0.488000000     1.360000000    -0.440000000
C    -0.995000000     2.828000000    -0.749000000
O    -1.965000000     3.296000000    -0.147000000
O    -0.496000000     3.512000000    -1.611000000
O     3.848000000    -5.364000000     2.583000000
H     3.402000000    -5.444000000     1.740000000
H     3.214000000    -5.693000000     3.221000000
O     0.959000000     6.825000000    -3.932000000
H     1.303000000     5.957000000    -3.722000000
H     0.042000000     6.670000000    -4.159000000
O     4.064000000    -2.242000000     2.244000000
H     4.021000000    -3.186000000     2.092000000
H     3.418000000    -2.080000000     2.930000000
O     2.210000000    -4.249000000    -0.799000000
H     2.337000000    -3.315000000    -0.637000000
H     3.047000000    -4.548000000    -1.154000000
O    -0.984000000    -0.911000000    -3.758000000
H    -1.747000000    -0.713000000    -3.215000000
H    -0.381000000    -1.364000000    -3.168000000
O     1.863000000     3.551000000     0.336000000
H     1.248000000     3.809000000    -0.351000000
H     2.554000000     3.078000000    -0.128000000
O    -1.783000000     7.378000000    -4.611000000
H    -2.529000000     7.770000000    -5.066000000
H    -2.105000000     6.528000000    -4.311000000
O    -0.601000000     7.124000000     2.026000000
H    -0.972000000     6.325000000     1.652000000
H    -1.289000000     7.781000000     1.916000000
O     0.880000000     2.574000000    -5.447000000
H     0.057000000     2.440000000    -5.917000000
H     1.062000000     3.509000000    -5.545000000
O    -5.509000000     2.439000000     3.801000000
H    -5.953000000     3.250000000     3.555000000
H    -5.369000000     2.519000000     4.745000000
O     1.844000000    -2.074000000     4.065000000
H     1.809000000    -2.893000000     4.558000000
H     1.034000000    -1.620000000     4.296000000
O     1.248000000     1.026000000     4.941000000
H     0.922000000     1.923000000     4.871000000
H     1.803000000     0.912000000     4.169000000
O    -5.336000000     1.390000000     0.665000000
H    -6.183000000     1.052000000     0.374000000
H    -5.338000000     1.256000000     1.613000000
O    -4.142000000     4.085000000     1.404000000
H    -3.348000000     3.661000000     1.076000000
H    -4.801000000     3.391000000     1.404000000
O    -5.663000000    -0.578000000     3.746000000
H    -6.618000000    -0.570000000     3.683000000
H    -5.412000000     0.345000000     3.696000000
O    -0.831000000    -4.718000000     4.909000000
H    -0.753000000    -4.898000000     3.972000000
H    -1.020000000    -5.571000000     5.301000000
O    -4.376000000    -2.292000000    -1.546000000
H    -4.304000000    -2.256000000    -0.592000000
H    -4.227000000    -1.391000000    -1.831000000
O    -2.806000000     2.895000000     4.011000000
H    -3.607000000     2.660000000     3.543000000
H    -2.122000000     2.874000000     3.342000000
O     4.752000000     2.591000000     0.181000000
H     4.382000000     1.709000000     0.171000000
H     4.944000000     2.760000000     1.103000000
O     1.372000000    -6.831000000     1.574000000
H     0.687000000    -6.287000000     1.961000000
H     1.655000000    -7.403000000     2.287000000
O     6.177000000    -2.368000000    -0.645000000
H     6.960000000    -2.071000000    -1.108000000
H     6.496000000    -3.035000000    -0.037000000
O    -1.931000000     4.872000000    -3.463000000
H    -1.744000000     4.206000000    -4.125000000
H    -1.541000000     4.528000000    -2.660000000
O    -4.787000000    -2.117000000     1.386000000
H    -4.877000000    -1.442000000     2.059000000
H    -5.464000000    -2.759000000     1.599000000
O    -4.429000000     5.315000000    -3.001000000
H    -4.579000000     4.636000000    -2.343000000
H    -3.560000000     5.120000000    -3.353000000
O    -0.863000000    -5.303000000     2.126000000
H    -1.490000000    -4.627000000     2.383000000
H    -0.621000000    -5.077000000     1.228000000
O    -3.385000000     6.395000000     3.073000000
H    -3.588000000     5.482000000     2.871000000
H    -3.918000000     6.900000000     2.459000000
O    -6.951000000     3.860000000    -0.693000000
H    -6.239000000     3.230000000    -0.799000000
H    -7.510000000     3.721000000    -1.458000000
O    -0.366000000    -5.174000000    -0.802000000
H     0.504000000    -4.778000000    -0.759000000
H    -0.857000000    -4.611000000    -1.399000000
O    -3.858000000     0.264000000    -2.863000000
H    -3.867000000     1.216000000    -2.765000000
H    -4.424000000     0.095000000    -3.617000000
O    -2.383000000     8.326000000    -1.596000000
H    -2.222000000     7.521000000    -1.105000000
H    -2.252000000     8.079000000    -2.512000000
O     5.039000000    -0.979000000     4.960000000
H     5.441000000    -1.830000000     5.138000000
H     4.347000000    -1.169000000     4.328000000
O     5.067000000     0.467000000    -3.251000000
H     4.149000000     0.451000000    -3.524000000
H     5.408000000    -0.390000000    -3.506000000
O     6.713000000     1.497000000    -1.248000000
H     5.962000000     1.862000000    -0.779000000
H     6.373000000     1.286000000    -2.117000000
O     5.200000000    -4.681000000    -1.852000000
H     4.887000000    -4.563000000    -2.748000000
H     5.503000000    -3.812000000    -1.587000000
O     4.375000000    -0.015000000     0.614000000
H     4.682000000    -0.571000000    -0.101000000
H     4.424000000    -0.573000000     1.390000000
O     1.573000000     0.220000000    -4.307000000
H     0.730000000    -0.125000000    -4.012000000
H     1.356000000     1.046000000    -4.739000000
O    -4.211000000    -2.636000000     4.916000000
H    -4.911000000    -1.995000000     4.791000000
H    -3.710000000    -2.303000000     5.660000000
O    -1.177000000    -1.833000000     4.758000000
H    -1.756000000    -2.032000000     4.022000000
H    -0.765000000    -2.671000000     4.971000000
O    -2.174000000    -3.902000000    -2.432000000
H    -2.578000000    -4.536000000    -3.025000000
H    -2.898000000    -3.346000000    -2.146000000
O    -4.143000000     2.582000000    -1.681000000
H    -3.354000000     2.882000000    -1.229000000
H    -4.612000000     2.065000000    -1.027000000
O     2.313000000     1.141000000     2.404000000
H     1.427000000     1.200000000     2.046000000
H     2.817000000     0.696000000     1.722000000
O     1.641000000     4.021000000    -3.042000000
H     1.735000000     3.199000000    -3.525000000
H     1.071000000     3.801000000    -2.305000000
O     4.205000000     5.413000000    -3.482000000
H     3.622000000     4.653000000    -3.494000000
H     4.711000000     5.313000000    -2.677000000
O    -1.857000000    -7.498000000    -0.614000000
H    -1.420000000    -6.680000000    -0.852000000
H    -2.455000000    -7.671000000    -1.341000000
O    -2.380000000     5.891000000    -0.118000000
H    -3.255000000     5.801000000     0.258000000
H    -2.164000000     5.015000000    -0.436000000
O    -2.553000000    -3.285000000     2.556000000
H    -3.193000000    -3.368000000     3.262000000
H    -3.042000000    -2.889000000     1.835000000
O     1.199000000    -6.369000000    -3.233000000
H     1.579000000    -7.111000000    -2.763000000
H     0.482000000    -6.073000000    -2.673000000
O    -0.028000000     2.896000000     2.537000000
H     0.518000000     3.148000000     1.792000000
H     0.399000000     3.298000000     3.294000000
