158
-3045.56716
C    -1.385000000    -0.099000000     0.559000000
H    -2.325000000    -0.226000000     1.090000000
C    -0.499000000    -1.146000000     0.339000000
H    -0.740000000    -2.109000000     0.783000000
C     0.730000000    -0.985000000    -0.203000000
H     1.470000000    -1.862000000    -0.252000000
C     1.124000000     0.297000000    -0.564000000
H     2.133000000     0.506000000    -0.911000000
C     0.302000000     1.402000000    -0.362000000
H     0.658000000     2.417000000    -0.519000000
C    -0.997000000     1.193000000     0.213000000
C    -1.932000000     2.337000000     0.437000000
O    -2.787000000     2.219000000     1.260000000
O    -1.916000000     3.337000000    -0.279000000
O     4.038000000    -1.258000000     2.441000000
H     4.117000000    -2.022000000     3.012000000
H     3.988000000    -1.622000000     1.558000000
O     2.967000000    -5.488000000     0.866000000
H     2.433000000    -5.544000000     0.073000000
H     2.410000000    -5.848000000     1.556000000
O    -1.588000000     0.724000000    -3.399000000
H    -1.100000000     1.247000000    -4.036000000
H    -0.915000000     0.363000000    -2.821000000
O    -2.841000000     4.700000000     2.794000000
H    -3.762000000     4.820000000     2.563000000
H    -2.536000000     4.007000000     2.208000000
O    -0.381000000    -3.293000000    -2.930000000
H     0.414000000    -3.542000000    -3.402000000
H    -0.077000000    -2.691000000    -2.251000000
O     0.584000000    -1.035000000    -4.833000000
H     0.304000000    -1.736000000    -4.245000000
H     0.877000000    -1.488000000    -5.624000000
O    -3.801000000     4.927000000    -3.348000000
H    -3.722000000     3.978000000    -3.254000000
H    -4.197000000     5.050000000    -4.211000000
O    -5.959000000     2.335000000     4.641000000
H    -5.708000000     2.256000000     5.561000000
H    -6.797000000     2.796000000     4.660000000
O    -0.732000000    -3.149000000     3.756000000
H    -1.329000000    -3.858000000     3.518000000
H    -1.284000000    -2.368000000     3.778000000
O     2.717000000     3.194000000    -2.011000000
H     2.757000000     2.247000000    -2.139000000
H     3.567000000     3.514000000    -2.314000000
O    -3.536000000     1.529000000     3.986000000
H    -3.522000000     1.842000000     3.082000000
H    -4.353000000     1.874000000     4.346000000
O    -6.337000000     1.927000000     2.036000000
H    -6.528000000     2.090000000     2.960000000
H    -7.169000000     1.628000000     1.669000000
O    -1.390000000     3.325000000     5.092000000
H    -2.175000000     3.014000000     4.642000000
H    -1.552000000     4.257000000     5.241000000
O     4.960000000     3.839000000     0.317000000
H     4.037000000     3.942000000     0.088000000
H     4.962000000     3.739000000     1.269000000
O     5.100000000     0.615000000    -0.155000000
H     5.624000000     0.364000000     0.606000000
H     4.969000000     1.558000000    -0.055000000
O     6.246000000    -0.241000000    -2.445000000
H     5.729000000     0.124000000    -1.727000000
H     6.338000000    -1.168000000    -2.226000000
O     1.558000000    -3.716000000     3.058000000
H     0.737000000    -3.305000000     3.328000000
H     1.352000000    -4.650000000     3.004000000
O    -4.255000000     5.414000000    -0.395000000
H    -4.080000000     5.609000000    -1.316000000
H    -3.573000000     4.789000000    -0.149000000
O    -5.986000000    -1.500000000     0.117000000
H    -5.553000000    -0.678000000    -0.112000000
H    -6.917000000    -1.328000000    -0.028000000
O     4.532000000    -3.033000000     0.648000000
H     3.789000000    -3.627000000     0.752000000
H     5.264000000    -3.490000000     1.063000000
O    -3.963000000     2.054000000    -2.798000000
H    -4.647000000     1.483000000    -3.150000000
H    -3.168000000     1.787000000    -3.258000000
O     0.204000000     7.545000000     1.540000000
H     0.282000000     8.389000000     1.984000000
H    -0.162000000     6.959000000     2.202000000
O     3.712000000    -3.051000000    -5.638000000
H     4.264000000    -2.882000000    -4.873000000
H     3.877000000    -2.310000000    -6.220000000
O    -3.931000000    -5.147000000     0.518000000
H    -4.012000000    -4.373000000     1.075000000
H    -3.612000000    -4.807000000    -0.319000000
O    -3.996000000    -1.753000000    -3.134000000
H    -3.584000000    -1.035000000    -2.655000000
H    -4.512000000    -1.321000000    -3.815000000
O     1.662000000    -0.413000000     5.486000000
H     1.049000000     0.147000000     5.963000000
H     1.225000000    -0.590000000     4.652000000
O     2.117000000    -3.611000000    -3.515000000
H     2.802000000    -3.073000000    -3.118000000
H     2.500000000    -3.919000000    -4.336000000
O    -0.648000000     5.899000000     3.590000000
H    -0.897000000     6.216000000     4.458000000
H    -1.409000000     5.403000000     3.289000000
O     3.761000000    -1.885000000    -2.290000000
H     4.145000000    -1.976000000    -1.418000000
H     3.449000000    -0.981000000    -2.321000000
O     1.600000000    -5.160000000    -1.450000000
H     1.807000000    -4.496000000    -2.107000000
H     1.042000000    -5.787000000    -1.910000000
O     2.737000000     0.820000000    -3.676000000
H     3.112000000     1.162000000    -4.488000000
H     2.011000000     0.267000000    -3.963000000
O     0.783000000    -0.234000000     2.878000000
H     1.665000000     0.131000000     2.808000000
H     0.460000000    -0.256000000     1.977000000
O     2.251000000     4.947000000     0.633000000
H     1.992000000     4.926000000     1.554000000
H     1.441000000     5.139000000     0.161000000
O    -0.037000000     2.458000000    -4.702000000
H     0.496000000     2.920000000    -5.350000000
H    -0.111000000     3.071000000    -3.971000000
O    -6.084000000    -1.523000000     3.510000000
H    -6.546000000    -0.701000000     3.345000000
H    -5.831000000    -1.475000000     4.432000000
O    -2.152000000    -0.966000000     3.586000000
H    -2.856000000    -0.334000000     3.736000000
H    -1.453000000    -0.454000000     3.180000000
O    -2.793000000    -4.045000000    -1.807000000
H    -1.868000000    -4.072000000    -2.052000000
H    -3.119000000    -3.231000000    -2.192000000
O    -5.006000000     0.916000000    -0.478000000
H    -4.691000000     1.235000000     0.368000000
H    -4.508000000     1.418000000    -1.123000000
O     0.720000000     2.637000000     3.579000000
H    -0.021000000     2.718000000     4.180000000
H     0.825000000     1.694000000     3.454000000
O    -1.231000000     4.457000000    -2.551000000
H    -2.119000000     4.641000000    -2.857000000
H    -1.349000000     4.117000000    -1.664000000
O     1.176000000     5.492000000    -2.059000000
H     0.296000000     5.135000000    -1.941000000
H     1.757000000     4.740000000    -1.941000000
O    -0.140000000    -6.424000000    -3.228000000
H     0.287000000    -6.140000000    -4.036000000
H    -1.065000000    -6.220000000    -3.361000000
O     4.239000000    -4.308000000     3.721000000
H     3.326000000    -4.024000000     3.761000000
H     4.303000000    -4.794000000     2.899000000
O     1.205000000     4.881000000    -5.053000000
H     2.054000000     4.549000000    -5.347000000
H     1.356000000     5.155000000    -4.148000000
O    -5.991000000     4.732000000     1.688000000
H    -5.366000000     5.021000000     1.024000000
H    -6.103000000     3.796000000     1.520000000
O    -4.006000000    -2.777000000     1.721000000
H    -3.904000000    -2.383000000     2.588000000
H    -4.630000000    -2.208000000     1.271000000
O     1.884000000     4.906000000     3.227000000
H     1.120000000     5.470000000     3.350000000
H     1.528000000     4.017000000     3.231000000
O    -0.556000000     7.784000000    -0.942000000
H    -0.185000000     7.700000000    -0.063000000
H    -0.574000000     6.889000000    -1.281000000
