158
-3036.82918
C     0.297000000     1.423000000    -0.152000000
H     0.312000000     2.499000000    -0.308000000
C    -0.315000000     0.815000000     0.983000000
H    -0.705000000     1.365000000     1.835000000
C    -0.448000000    -0.557000000     1.047000000
H    -0.869000000    -0.966000000     1.902000000
C    -0.009000000    -1.310000000     0.002000000
H    -0.233000000    -2.373000000     0.052000000
C     0.558000000    -0.691000000    -1.186000000
H     0.762000000    -1.270000000    -2.083000000
C     0.678000000     0.655000000    -1.263000000
C     1.216000000     1.278000000    -2.559000000
O     1.447000000     2.438000000    -2.630000000
O     1.221000000     0.692000000    -3.627000000
O     2.017000000    -1.864000000     3.365000000
H     1.281000000    -2.422000000     3.113000000
H     2.189000000    -1.331000000     2.588000000
O    -2.640000000    -0.626000000    -1.954000000
H    -1.803000000    -0.488000000    -2.396000000
H    -2.680000000    -1.570000000    -1.805000000
O    -3.629000000    -1.702000000     6.959000000
H    -2.702000000    -1.921000000     6.869000000
H    -3.992000000    -2.411000000     7.490000000
O     2.723000000     3.590000000    -0.534000000
H     2.262000000     3.239000000    -1.296000000
H     3.387000000     2.931000000    -0.332000000
O     1.359000000    -0.753000000    -7.680000000
H     0.523000000    -1.190000000    -7.842000000
H     1.680000000    -1.143000000    -6.867000000
O    -4.499000000     0.618000000     2.962000000
H    -4.399000000    -0.223000000     3.407000000
H    -5.374000000     0.917000000     3.209000000
O    -4.384000000    -1.776000000     4.308000000
H    -4.092000000    -1.741000000     5.219000000
H    -5.154000000    -2.344000000     4.325000000
O    -3.891000000     3.531000000    -0.841000000
H    -3.402000000     3.396000000    -1.653000000
H    -3.645000000     2.792000000    -0.286000000
O    -1.019000000    -0.723000000    -4.225000000
H    -0.799000000    -1.623000000    -4.464000000
H    -0.178000000    -0.266000000    -4.209000000
O    -2.274000000    -3.466000000    -1.887000000
H    -2.152000000    -3.781000000    -0.991000000
H    -2.603000000    -4.226000000    -2.366000000
O    -0.817000000     4.481000000     2.033000000
H    -0.789000000     4.951000000     1.200000000
H    -1.530000000     4.896000000     2.518000000
O    -3.531000000     5.470000000     1.224000000
H    -3.752000000     4.909000000     1.968000000
H    -3.414000000     4.863000000     0.493000000
O     4.720000000    -2.599000000    -2.574000000
H     4.021000000    -2.844000000    -1.968000000
H     4.881000000    -3.392000000    -3.086000000
O     1.277000000    -0.154000000     6.243000000
H     0.540000000    -0.522000000     6.730000000
H     2.025000000    -0.697000000     6.493000000
O     5.191000000     1.928000000    -0.278000000
H     6.072000000     2.165000000    -0.570000000
H     4.888000000     1.291000000    -0.925000000
O    -4.604000000     3.865000000     3.212000000
H    -4.275000000     2.973000000     3.100000000
H    -5.429000000     3.879000000     2.726000000
O    -2.214000000     0.533000000    -6.615000000
H    -1.949000000     0.219000000    -5.750000000
H    -3.164000000     0.634000000    -6.552000000
O     2.466000000     1.244000000     4.168000000
H     1.891000000     0.563000000     4.517000000
H     1.890000000     1.995000000     4.026000000
O     0.298000000     2.481000000    -5.541000000
H     0.877000000     3.219000000    -5.348000000
H     0.641000000     1.763000000    -5.010000000
O    -4.952000000    -5.108000000     1.318000000
H    -5.213000000    -4.226000000     1.052000000
H    -5.290000000    -5.677000000     0.626000000
O    -2.660000000    -6.713000000    -1.009000000
H    -2.522000000    -7.635000000    -0.792000000
H    -2.359000000    -6.237000000    -0.235000000
O     3.464000000     1.874000000    -6.491000000
H     3.384000000     0.966000000    -6.785000000
H     2.989000000     2.382000000    -7.149000000
O     2.039000000    -3.860000000    -6.106000000
H     2.042000000    -3.168000000    -5.444000000
H     1.280000000    -4.399000000    -5.885000000
O     2.728000000     4.979000000     2.109000000
H     2.134000000     4.794000000     2.836000000
H     2.388000000     4.455000000     1.383000000
O     4.259000000     0.278000000     2.720000000
H     4.034000000    -0.154000000     1.897000000
H     3.416000000     0.525000000     3.101000000
O     0.073000000    -6.722000000     0.466000000
H     0.009000000    -5.768000000     0.420000000
H     1.008000000    -6.903000000     0.372000000
O    -5.654000000    -2.458000000     0.268000000
H    -5.784000000    -1.944000000     1.065000000
H    -6.348000000    -2.163000000    -0.322000000
O     0.869000000    -4.223000000    -2.088000000
H     1.189000000    -4.834000000    -2.752000000
H    -0.074000000    -4.173000000    -2.243000000
O     0.932000000     3.402000000     3.694000000
H     0.633000000     3.920000000     4.441000000
H     0.304000000     3.597000000     2.999000000
O     4.318000000     2.959000000    -3.726000000
H     3.515000000     3.126000000    -3.232000000
H     4.014000000     2.632000000    -4.573000000
O    -0.842000000     5.753000000    -2.917000000
H     0.098000000     5.577000000    -2.870000000
H    -0.908000000     6.582000000    -3.390000000
O    -3.664000000     1.256000000     0.383000000
H    -3.673000000     0.816000000     1.233000000
H    -2.974000000     0.811000000    -0.110000000
O    -1.850000000    -3.660000000     4.027000000
H    -2.342000000    -2.839000000     4.032000000
H    -0.984000000    -3.418000000     3.700000000
O     1.047000000     2.161000000    -8.122000000
H     1.120000000     1.208000000    -8.083000000
H     0.669000000     2.407000000    -7.277000000
O     4.307000000     0.226000000    -2.217000000
H     4.682000000    -0.578000000    -2.577000000
H     3.988000000     0.705000000    -2.982000000
O     1.386000000     5.276000000    -5.642000000
H     0.815000000     5.552000000    -6.358000000
H     2.211000000     5.733000000    -5.804000000
O     3.398000000    -1.649000000     5.733000000
H     2.836000000    -1.898000000     5.000000000
H     4.000000000    -2.386000000     5.835000000
O    -2.124000000    -4.812000000     1.076000000
H    -1.792000000    -4.501000000     1.918000000
H    -3.048000000    -5.003000000     1.239000000
O    -1.959000000     3.378000000    -2.984000000
H    -1.075000000     3.184000000    -3.296000000
H    -2.048000000     4.325000000    -3.087000000
O     2.907000000    -0.994000000     0.690000000
H     2.415000000    -0.317000000     0.226000000
H     3.134000000    -1.632000000     0.013000000
O    -0.306000000     5.855000000    -0.175000000
H    -0.779000000     5.915000000    -1.005000000
H     0.590000000     6.114000000    -0.391000000
O     4.771000000     5.620000000    -1.242000000
H     3.986000000     5.086000000    -1.122000000
H     5.018000000     5.885000000    -0.356000000
O     2.489000000    -1.273000000    -5.152000000
H     3.412000000    -1.028000000    -5.218000000
H     2.123000000    -0.660000000    -4.514000000
O    -3.362000000     1.141000000    -4.157000000
H    -2.958000000     0.406000000    -3.696000000
H    -3.075000000     1.915000000    -3.672000000
O     1.870000000     5.243000000    -3.038000000
H     1.588000000     4.340000000    -2.893000000
H     1.574000000     5.447000000    -3.925000000
O     3.048000000    -3.508000000    -0.951000000
H     3.444000000    -4.279000000    -0.546000000
H     2.149000000    -3.775000000    -1.146000000
O     4.228000000     5.537000000    -4.473000000
H     3.673000000     5.814000000    -3.745000000
H     4.474000000     4.637000000    -4.258000000
O     0.519000000    -4.184000000     2.504000000
H     0.094000000    -4.997000000     2.777000000
H     1.444000000    -4.416000000     2.412000000
