158
-3026.07517
C    -1.017000000     1.089000000     0.262000000
H    -1.745000000     1.845000000     0.544000000
C    -1.120000000    -0.194000000     0.833000000
H    -1.946000000    -0.455000000     1.489000000
C    -0.077000000    -1.079000000     0.560000000
H    -0.167000000    -1.944000000     1.077000000
C     1.017000000    -0.780000000    -0.353000000
H     1.781000000    -1.526000000    -0.555000000
C     0.992000000     0.442000000    -0.989000000
H     1.747000000     0.745000000    -1.710000000
C     0.001000000     1.422000000    -0.710000000
C     0.122000000     2.813000000    -1.409000000
O    -0.622000000     3.745000000    -1.090000000
O     0.971000000     3.073000000    -2.282000000
O    -2.845000000     6.833000000     0.734000000
H    -3.063000000     7.280000000    -0.084000000
H    -3.245000000     7.372000000     1.416000000
O    -1.055000000     7.922000000    -3.312000000
H    -0.906000000     7.447000000    -4.129000000
H    -0.458000000     7.513000000    -2.685000000
O     2.805000000    -0.006000000     4.762000000
H     2.476000000    -0.843000000     4.433000000
H     2.382000000     0.651000000     4.209000000
O     6.346000000    -0.687000000     0.551000000
H     5.932000000    -0.454000000    -0.279000000
H     5.615000000    -0.823000000     1.154000000
O     4.280000000    -2.885000000    -2.429000000
H     3.980000000    -1.990000000    -2.586000000
H     5.150000000    -2.919000000    -2.826000000
O    -0.704000000     1.996000000    -4.086000000
H    -0.092000000     2.358000000    -3.446000000
H    -1.485000000     1.782000000    -3.576000000
O    -1.524000000     1.333000000     5.738000000
H    -1.374000000     1.997000000     5.066000000
H    -1.387000000     1.794000000     6.566000000
O     3.118000000     4.107000000    -0.755000000
H     2.438000000     3.680000000    -1.277000000
H     3.940000000     3.817000000    -1.150000000
O     0.010000000     0.658000000    -6.453000000
H    -0.844000000     0.705000000    -6.883000000
H    -0.126000000     1.084000000    -5.606000000
O    -5.248000000    -3.607000000     2.955000000
H    -5.401000000    -3.385000000     3.873000000
H    -4.699000000    -2.895000000     2.625000000
O    -3.440000000     1.167000000     3.034000000
H    -4.190000000     1.753000000     3.131000000
H    -2.677000000     1.734000000     3.144000000
O     4.052000000    -1.811000000     1.475000000
H     4.621000000    -2.218000000     2.128000000
H     3.537000000    -2.536000000     1.120000000
O    -0.048000000     8.204000000     1.223000000
H     0.293000000     8.892000000     0.653000000
H     0.415000000     7.413000000     0.949000000
O    -0.882000000     4.743000000     1.317000000
H    -0.935000000     4.232000000     0.509000000
H    -1.358000000     5.550000000     1.121000000
O    -4.404000000    -0.992000000     1.849000000
H    -4.804000000    -0.606000000     1.069000000
H    -3.969000000    -0.258000000     2.283000000
O     0.332000000    -4.654000000     3.231000000
H     0.631000000    -5.354000000     2.651000000
H    -0.461000000    -5.003000000     3.638000000
O    -5.251000000     3.382000000     0.642000000
H    -5.902000000     3.815000000     0.090000000
H    -4.543000000     3.151000000     0.042000000
O    -1.884000000    -2.228000000    -3.496000000
H    -2.710000000    -1.749000000    -3.441000000
H    -1.674000000    -2.449000000    -2.588000000
O    -2.419000000    -4.723000000     4.542000000
H    -2.070000000    -4.653000000     5.430000000
H    -2.768000000    -3.852000000     4.352000000
O    -1.031000000     2.640000000     3.110000000
H    -0.961000000     3.521000000     2.744000000
H    -0.252000000     2.185000000     2.789000000
O     0.871000000    -7.617000000    -0.783000000
H     1.420000000    -7.652000000    -1.566000000
H     1.212000000    -6.874000000    -0.285000000
O     5.464000000     2.965000000    -1.608000000
H     5.486000000     2.015000000    -1.494000000
H     6.142000000     3.292000000    -1.017000000
O     0.650000000     4.760000000    -5.149000000
H     0.722000000     4.807000000    -6.103000000
H     0.999000000     3.898000000    -4.924000000
O    -2.792000000    -2.853000000    -0.934000000
H    -2.699000000    -1.918000000    -0.751000000
H    -3.737000000    -3.005000000    -0.928000000
O    -2.789000000    -6.005000000     2.127000000
H    -2.336000000    -5.500000000     2.803000000
H    -2.392000000    -6.875000000     2.172000000
O    -2.215000000     4.543000000    -4.631000000
H    -2.429000000     4.551000000    -3.698000000
H    -1.273000000     4.377000000    -4.660000000
O     3.585000000    -5.841000000     2.642000000
H     2.747000000    -6.303000000     2.624000000
H     4.212000000    -6.496000000     2.951000000
O     2.990000000    -4.852000000    -1.202000000
H     2.077000000    -4.563000000    -1.196000000
H     3.481000000    -4.088000000    -1.507000000
O     1.640000000     5.978000000     0.871000000
H     0.816000000     5.492000000     0.840000000
H     2.214000000     5.516000000     0.259000000
O    -5.388000000     2.420000000    -1.925000000
H    -5.891000000     2.216000000    -2.713000000
H    -5.646000000     1.747000000    -1.295000000
O    -3.018000000     1.163000000    -3.215000000
H    -3.669000000     1.851000000    -3.080000000
H    -3.401000000     0.387000000    -2.806000000
O     1.630000000     8.253000000    -1.901000000
H     1.569000000     7.317000000    -2.095000000
H     2.503000000     8.503000000    -2.205000000
O    -1.074000000    -1.569000000     6.059000000
H    -1.147000000    -0.694000000     5.679000000
H    -0.588000000    -1.437000000     6.873000000
O     4.090000000     5.587000000    -3.818000000
H     4.456000000     5.896000000    -2.989000000
H     4.842000000     5.536000000    -4.408000000
O     5.666000000     0.088000000    -1.996000000
H     6.386000000    -0.290000000    -2.501000000
H     5.012000000     0.327000000    -2.652000000
O    -5.720000000    -3.705000000     0.357000000
H    -5.324000000    -3.632000000     1.225000000
H    -5.706000000    -4.642000000     0.165000000
O     3.874000000     0.472000000    -4.297000000
H     3.129000000    -0.097000000    -4.102000000
H     3.499000000     1.351000000    -4.341000000
O    -2.973000000    -2.095000000     4.267000000
H    -3.027000000    -1.346000000     3.674000000
H    -2.461000000    -1.776000000     5.010000000
O     1.269000000    -2.274000000     4.276000000
H     0.635000000    -1.987000000     4.932000000
H     0.832000000    -2.993000000     3.819000000
O     0.181000000    -4.339000000    -1.346000000
H    -0.407000000    -4.952000000    -0.904000000
H    -0.286000000    -3.504000000    -1.329000000
O    -2.770000000     4.898000000    -1.758000000
H    -1.970000000     4.460000000    -1.468000000
H    -2.603000000     5.828000000    -1.604000000
O     1.926000000     1.686000000     2.334000000
H     2.613000000     2.322000000     2.132000000
H     2.165000000     0.907000000     1.832000000
O     3.067000000     3.089000000    -4.044000000
H     3.397000000     3.974000000    -3.889000000
H     2.537000000     2.892000000    -3.271000000
O     0.846000000     5.830000000    -2.679000000
H     0.524000000     5.037000000    -2.250000000
H     0.722000000     5.664000000    -3.614000000
O    -2.369000000    -5.577000000    -0.729000000
H    -2.634000000    -5.852000000     0.149000000
H    -2.760000000    -4.711000000    -0.838000000
O     2.287000000    -1.470000000    -3.587000000
H     2.068000000    -1.255000000    -2.680000000
H     1.619000000    -2.103000000    -3.850000000
O    -4.236000000     0.361000000     5.787000000
H    -3.353000000     0.712000000     5.903000000
H    -4.451000000     0.553000000     4.874000000
O     3.315000000    -3.767000000     5.700000000
H     3.896000000    -3.371000000     5.050000000
H     2.505000000    -3.261000000     5.637000000
