158
-3011.98788
C     0.199000000     1.495000000     0.020000000
H     0.292000000     2.566000000     0.181000000
C    -0.273000000     0.662000000     1.048000000
H    -0.516000000     1.188000000     1.968000000
C    -0.492000000    -0.712000000     0.893000000
H    -1.001000000    -1.328000000     1.661000000
C    -0.161000000    -1.263000000    -0.300000000
H    -0.371000000    -2.324000000    -0.407000000
C     0.485000000    -0.524000000    -1.288000000
H     0.724000000    -1.035000000    -2.217000000
C     0.679000000     0.851000000    -1.118000000
C     1.244000000     1.638000000    -2.226000000
O     1.729000000     2.760000000    -1.914000000
O     1.340000000     1.275000000    -3.405000000
O     3.044000000    -2.398000000     3.040000000
H     3.416000000    -2.549000000     2.172000000
H     3.107000000    -3.246000000     3.479000000
O    -2.776000000     0.282000000    -3.088000000
H    -2.000000000     0.582000000    -3.561000000
H    -2.694000000     0.675000000    -2.219000000
O    -1.706000000    -1.716000000     5.108000000
H    -1.203000000    -1.257000000     5.781000000
H    -2.534000000    -1.935000000     5.536000000
O     3.178000000     3.706000000     0.636000000
H     2.374000000     3.695000000     0.117000000
H     3.477000000     2.797000000     0.634000000
O     0.079000000    -2.301000000    -5.386000000
H    -0.809000000    -2.411000000    -5.727000000
H     0.072000000    -2.765000000    -4.548000000
O    -4.504000000    -0.643000000     0.503000000
H    -4.106000000    -0.944000000     1.320000000
H    -5.334000000    -0.249000000     0.772000000
O    -0.666000000     6.812000000     2.160000000
H    -1.599000000     6.873000000     2.363000000
H    -0.600000000     7.089000000     1.247000000
O    -3.628000000    -1.148000000     2.990000000
H    -3.124000000    -0.779000000     3.715000000
H    -3.737000000    -2.071000000     3.220000000
O    -4.541000000     3.538000000    -0.851000000
H    -3.941000000     4.068000000    -1.376000000
H    -4.028000000     2.770000000    -0.602000000
O     0.318000000    -0.653000000     7.332000000
H     0.333000000    -0.676000000     8.289000000
H     0.915000000    -1.353000000     7.066000000
O    -0.482000000     0.222000000    -4.887000000
H    -0.295000000    -0.716000000    -4.933000000
H     0.126000000     0.555000000    -4.226000000
O    -1.613000000    -4.537000000    -0.940000000
H    -1.283000000    -5.397000000    -1.199000000
H    -1.675000000    -4.581000000     0.014000000
O    -3.730000000    -3.156000000    -2.112000000
H    -3.120000000    -3.607000000    -1.528000000
H    -3.189000000    -2.870000000    -2.848000000
O    -3.702000000     0.971000000     6.966000000
H    -3.896000000     0.148000000     6.517000000
H    -4.560000000     1.367000000     7.121000000
O    -5.029000000     2.430000000     4.013000000
H    -4.381000000     1.977000000     3.473000000
H    -5.864000000     2.267000000     3.574000000
O    -0.252000000     1.963000000     6.271000000
H    -0.926000000     1.964000000     6.951000000
H     0.106000000     1.076000000     6.291000000
O    -0.726000000    -4.633000000     6.422000000
H    -0.670000000    -4.228000000     5.557000000
H    -0.077000000    -4.167000000     6.948000000
O     5.154000000     1.241000000    -0.711000000
H     4.779000000     1.307000000    -1.590000000
H     4.585000000     0.622000000    -0.254000000
O    -2.828000000     3.374000000    -4.802000000
H    -2.724000000     2.507000000    -4.411000000
H    -3.622000000     3.304000000    -5.332000000
O     1.993000000     3.397000000     4.058000000
H     1.602000000     2.809000000     4.705000000
H     1.253000000     3.698000000     3.531000000
O     1.000000000     2.816000000    -5.506000000
H     1.242000000     2.040000000    -6.013000000
H     1.004000000     2.518000000    -4.597000000
O    -0.654000000     4.952000000    -4.749000000
H     0.012000000     4.285000000    -4.583000000
H    -1.443000000     4.455000000    -4.964000000
O     2.294000000    -1.790000000    -6.995000000
H     2.381000000    -1.003000000    -6.457000000
H     1.629000000    -2.314000000    -6.549000000
O     4.148000000     1.615000000     3.432000000
H     3.793000000     1.157000000     2.670000000
H     3.545000000     2.344000000     3.576000000
O    -5.505000000    -0.663000000    -2.290000000
H    -5.317000000    -0.354000000    -1.404000000
H    -4.661000000    -0.969000000    -2.622000000
O    -0.129000000    -3.381000000    -2.941000000
H    -0.361000000    -4.166000000    -3.436000000
H    -0.493000000    -3.531000000    -2.069000000
O    -0.251000000     4.095000000     2.753000000
H    -0.420000000     5.004000000     2.504000000
H    -1.119000000     3.728000000     2.925000000
O     1.357000000    -6.061000000     3.462000000
H     0.872000000    -5.272000000     3.703000000
H     0.828000000    -6.781000000     3.803000000
O     3.420000000     4.496000000    -3.015000000
H     3.060000000     3.710000000    -2.602000000
H     3.930000000     4.165000000    -3.755000000
O    -2.955000000     1.251000000    -0.560000000
H    -3.529000000     0.570000000    -0.209000000
H    -2.070000000     0.940000000    -0.369000000
O     0.187000000    -3.600000000     3.841000000
H    -0.373000000    -2.824000000     3.817000000
H     0.978000000    -3.312000000     4.296000000
O     4.713000000     2.335000000    -4.957000000
H     4.855000000     1.998000000    -5.842000000
H     5.582000000     2.608000000    -4.663000000
O     4.175000000    -1.379000000    -3.308000000
H     3.574000000    -1.808000000    -2.699000000
H     3.606000000    -0.979000000    -3.965000000
O    -0.649000000     3.934000000    -7.368000000
H    -0.102000000     3.596000000    -6.659000000
H    -1.318000000     4.457000000    -6.926000000
O     3.769000000    -1.355000000     5.764000000
H     3.902000000    -0.956000000     4.904000000
H     3.230000000    -2.126000000     5.590000000
O    -1.076000000    -4.780000000     1.723000000
H    -1.949000000    -4.690000000     2.105000000
H    -0.480000000    -4.714000000     2.469000000
O    -2.511000000     4.638000000    -2.291000000
H    -1.820000000     5.279000000    -2.457000000
H    -2.791000000     4.357000000    -3.162000000
O     2.719000000    -4.684000000     5.323000000
H     3.571000000    -5.009000000     5.613000000
H     2.395000000    -5.360000000     4.727000000
O     2.973000000     0.163000000     1.158000000
H     2.030000000     0.196000000     0.992000000
H     3.198000000    -0.764000000     1.076000000
O    -0.754000000     7.052000000    -0.621000000
H    -1.667000000     7.132000000    -0.897000000
H    -0.342000000     6.526000000    -1.306000000
O     3.932000000     6.156000000    -0.793000000
H     4.007000000     5.514000000    -1.499000000
H     3.047000000     6.032000000    -0.450000000
O     2.763000000     0.111000000    -5.198000000
H     3.399000000     0.825000000    -5.155000000
H     2.089000000     0.353000000    -4.563000000
O    -4.243000000    -2.179000000     6.443000000
H    -4.351000000    -2.740000000     7.211000000
H    -4.902000000    -2.491000000     5.823000000
O     0.814000000     5.109000000    -1.941000000
H     1.082000000     4.218000000    -1.717000000
H     1.325000000     5.323000000    -2.722000000
O     2.570000000    -2.943000000    -1.771000000
H     2.781000000    -3.866000000    -1.913000000
H     1.633000000    -2.880000000    -1.956000000
O    -4.456000000    -3.923000000     3.432000000
H    -5.397000000    -4.046000000     3.310000000
H    -4.185000000    -4.665000000     3.972000000
O     5.353000000     5.150000000     1.242000000
H     5.794000000     4.301000000     1.253000000
H     4.522000000     4.983000000     0.798000000
O     3.964000000    -2.351000000     0.471000000
H     3.435000000    -2.384000000    -0.327000000
H     4.403000000    -3.201000000     0.502000000
