158
-3075.81288
C    -1.343000000    -0.482000000    -0.497000000
H    -2.176000000    -0.979000000    -0.987000000
C    -0.510000000    -1.211000000     0.401000000
H    -0.857000000    -2.165000000     0.790000000
C     0.695000000    -0.604000000     0.801000000
H     1.352000000    -1.218000000     1.471000000
C     1.111000000     0.576000000     0.199000000
H     2.077000000     0.959000000     0.516000000
C     0.245000000     1.251000000    -0.658000000
H     0.531000000     2.206000000    -1.091000000
C    -0.961000000     0.757000000    -1.061000000
C    -1.796000000     1.469000000    -2.054000000
O    -2.861000000     0.965000000    -2.426000000
O    -1.488000000     2.628000000    -2.364000000
O     5.657000000    -3.899000000     1.428000000
H     5.407000000    -4.746000000     1.796000000
H     6.275000000    -4.114000000     0.729000000
O     5.031000000    -3.814000000    -1.481000000
H     5.040000000    -3.397000000    -0.620000000
H     4.228000000    -4.336000000    -1.486000000
O    -0.849000000    -6.935000000     0.379000000
H    -0.412000000    -6.951000000    -0.473000000
H    -0.346000000    -6.305000000     0.895000000
O     1.989000000    -3.816000000     1.514000000
H     1.093000000    -3.919000000     1.835000000
H     1.911000000    -3.878000000     0.562000000
O    -3.157000000     7.366000000    -2.896000000
H    -3.993000000     7.643000000    -2.520000000
H    -2.857000000     6.663000000    -2.321000000
O    -4.545000000     3.161000000    -2.639000000
H    -4.017000000     3.776000000    -2.130000000
H    -3.953000000     2.430000000    -2.819000000
O     5.165000000     1.652000000     1.376000000
H     6.029000000     1.930000000     1.679000000
H     5.244000000     0.705000000     1.262000000
O    -1.143000000    -2.961000000    -2.649000000
H    -0.974000000    -2.410000000    -3.413000000
H    -1.975000000    -2.640000000    -2.302000000
O     3.837000000     2.487000000     3.561000000
H     3.407000000     1.735000000     3.969000000
H     4.058000000     2.188000000     2.679000000
O     1.844000000     3.793000000    -3.214000000
H     2.207000000     2.907000000    -3.217000000
H     2.372000000     4.271000000    -3.853000000
O    -3.408000000    -5.446000000    -0.764000000
H    -3.967000000    -6.000000000    -0.219000000
H    -2.537000000    -5.531000000    -0.376000000
O     1.468000000    -5.963000000     4.790000000
H     1.703000000    -5.054000000     4.979000000
H     2.089000000    -6.236000000     4.115000000
O     3.283000000    -2.796000000     7.074000000
H     3.473000000    -3.613000000     7.534000000
H     3.464000000    -2.991000000     6.154000000
O     0.400000000     2.576000000     5.162000000
H     0.180000000     1.648000000     5.245000000
H     1.314000000     2.632000000     5.440000000
O    -6.110000000     2.597000000     0.826000000
H    -5.734000000     3.297000000     0.293000000
H    -5.585000000     1.825000000     0.614000000
O    -0.257000000    -4.688000000     2.513000000
H    -0.262000000    -5.390000000     3.163000000
H    -1.001000000    -4.135000000     2.752000000
O     1.528000000     5.008000000     0.981000000
H     2.121000000     4.279000000     0.800000000
H     1.155000000     5.231000000     0.128000000
O     2.740000000    -3.636000000     4.295000000
H     2.711000000    -3.824000000     3.357000000
H     1.945000000    -3.130000000     4.463000000
O     2.581000000     1.264000000    -3.039000000
H     2.863000000     0.618000000    -2.391000000
H     1.835000000     0.854000000    -3.477000000
O    -2.124000000    -2.938000000     3.088000000
H    -2.580000000    -2.224000000     2.642000000
H    -2.191000000    -2.722000000     4.018000000
O     5.066000000    -0.882000000     1.715000000
H     4.915000000    -0.859000000     2.660000000
H     5.665000000    -1.617000000     1.586000000
O     0.433000000    -2.244000000     4.642000000
H    -0.313000000    -2.297000000     5.240000000
H     0.188000000    -1.563000000     4.015000000
O    -4.875000000     3.392000000    -5.705000000
H    -4.747000000     3.466000000    -4.760000000
H    -4.478000000     2.551000000    -5.936000000
O    -3.706000000    -1.295000000    -3.461000000
H    -4.600000000    -1.456000000    -3.158000000
H    -3.440000000    -0.494000000    -3.010000000
O     3.169000000    -5.980000000    -1.183000000
H     2.442000000    -5.396000000    -0.968000000
H     3.054000000    -6.173000000    -2.114000000
O     0.646000000     0.188000000    -4.518000000
H     1.211000000    -0.524000000    -4.818000000
H    -0.243000000    -0.156000000    -4.611000000
O     5.100000000    -0.267000000     4.580000000
H     4.185000000    -0.074000000     4.372000000
H     5.396000000     0.491000000     5.084000000
O    -2.095000000     5.174000000    -1.725000000
H    -1.211000000     5.529000000    -1.819000000
H    -2.005000000     4.247000000    -1.945000000
O    -0.456000000     3.618000000     2.578000000
H     0.330000000     4.029000000     2.218000000
H    -0.179000000     3.270000000     3.425000000
O    -6.506000000    -1.227000000    -2.537000000
H    -6.781000000    -2.139000000    -2.451000000
H    -6.492000000    -0.895000000    -1.639000000
O    -4.939000000    -3.203000000    -0.691000000
H    -4.350000000    -3.928000000    -0.477000000
H    -5.487000000    -3.541000000    -1.399000000
O     2.196000000    -1.798000000    -2.016000000
H     1.275000000    -1.718000000    -1.766000000
H     2.679000000    -1.648000000    -1.204000000
O    -4.676000000    -0.481000000    -5.927000000
H    -4.457000000    -0.780000000    -5.044000000
H    -5.582000000    -0.181000000    -5.860000000
O     3.283000000     3.324000000    -0.115000000
H     4.079000000     2.977000000     0.288000000
H     3.516000000     3.450000000    -1.035000000
O    -3.315000000    -5.416000000     3.074000000
H    -3.181000000    -4.470000000     3.127000000
H    -3.170000000    -5.729000000     3.967000000
O     0.786000000    -4.262000000    -1.036000000
H     0.345000000    -4.850000000    -1.649000000
H     0.472000000    -3.389000000    -1.273000000
O    -0.548000000     0.130000000     3.416000000
H    -0.717000000    -0.129000000     2.510000000
H    -1.414000000     0.327000000     3.774000000
O    -3.918000000     0.893000000     0.174000000
H    -3.593000000     1.689000000     0.593000000
H    -3.592000000     0.944000000    -0.724000000
O     2.355000000     0.283000000     4.438000000
H     1.991000000     0.125000000     5.309000000
H     1.593000000     0.303000000     3.860000000
O     0.686000000     5.586000000    -1.404000000
H     0.796000000     4.665000000    -1.639000000
H     1.338000000     6.048000000    -1.932000000
O    -1.318000000    -1.587000000    -4.908000000
H    -2.263000000    -1.438000000    -4.889000000
H    -1.113000000    -1.709000000    -5.835000000
O    -1.659000000     6.523000000    -5.006000000
H    -2.260000000     6.925000000    -4.379000000
H    -1.480000000     5.655000000    -4.644000000
O    -0.880000000     3.737000000    -4.562000000
H    -1.229000000     3.233000000    -3.827000000
H     0.068000000     3.616000000    -4.506000000
O     4.346000000    -0.235000000    -0.918000000
H     4.478000000    -0.421000000     0.011000000
H     4.842000000     0.569000000    -1.074000000
O    -2.433000000     1.730000000    -5.433000000
H    -2.689000000     1.307000000    -4.613000000
H    -1.883000000     2.464000000    -5.163000000
O    -3.765000000    -1.653000000     1.415000000
H    -3.904000000    -0.793000000     1.018000000
H    -4.093000000    -2.273000000     0.763000000
O    -2.997000000     3.123000000     1.570000000
H    -2.068000000     3.190000000     1.791000000
H    -3.358000000     3.983000000     1.790000000
O     1.396000000    -0.130000000     6.833000000
H     1.751000000    -1.007000000     6.682000000
H     1.727000000     0.116000000     7.697000000
