158
-3077.53139
C    -1.420000000    -0.006000000    -0.456000000
H    -2.442000000    -0.065000000    -0.820000000
C    -0.575000000    -1.131000000    -0.499000000
H    -0.927000000    -2.105000000    -0.830000000
C     0.691000000    -1.018000000     0.040000000
H     1.240000000    -1.927000000     0.081000000
C     1.148000000     0.185000000     0.558000000
H     2.182000000     0.162000000     0.892000000
C     0.389000000     1.378000000     0.488000000
H     0.818000000     2.335000000     0.772000000
C    -0.931000000     1.249000000     0.009000000
C    -1.820000000     2.475000000    -0.130000000
O    -2.996000000     2.328000000    -0.400000000
O    -1.350000000     3.630000000     0.031000000
O     1.958000000     7.784000000     0.634000000
H     1.187000000     7.311000000     0.320000000
H     2.070000000     7.487000000     1.537000000
O     3.226000000    -2.628000000     4.760000000
H     2.385000000    -2.176000000     4.686000000
H     3.389000000    -2.976000000     3.883000000
O     6.060000000    -3.815000000     0.263000000
H     5.227000000    -4.210000000     0.009000000
H     6.570000000    -3.791000000    -0.547000000
O     0.675000000     3.394000000    -3.637000000
H     0.595000000     3.346000000    -4.590000000
H     1.477000000     2.911000000    -3.439000000
O    -0.717000000     7.194000000     0.105000000
H    -1.222000000     7.614000000    -0.591000000
H    -0.481000000     6.338000000    -0.253000000
O    -3.543000000     5.138000000     0.884000000
H    -4.125000000     4.762000000     0.224000000
H    -2.712000000     4.678000000     0.761000000
O     1.036000000    -0.115000000    -4.749000000
H     0.117000000     0.152000000    -4.771000000
H     1.266000000    -0.259000000    -5.667000000
O     0.920000000    -5.404000000    -0.542000000
H    -0.013000000    -5.473000000    -0.340000000
H     0.964000000    -5.473000000    -1.495000000
O     3.726000000    -6.348000000     3.285000000
H     2.784000000    -6.407000000     3.130000000
H     4.074000000    -5.940000000     2.493000000
O    -7.900000000     1.359000000     0.846000000
H    -8.192000000     0.471000000     1.053000000
H    -6.951000000     1.334000000     0.969000000
O     2.174000000     3.079000000     3.098000000
H     2.624000000     3.339000000     2.295000000
H     1.884000000     3.903000000     3.489000000
O     2.959000000     1.827000000    -3.466000000
H     2.734000000     0.897000000    -3.503000000
H     3.717000000     1.867000000    -2.883000000
O    -4.999000000     3.804000000     2.745000000
H    -4.748000000     4.684000000     2.465000000
H    -5.473000000     3.940000000     3.566000000
O    -4.384000000    -2.215000000    -0.860000000
H    -4.918000000    -1.475000000    -0.570000000
H    -3.515000000    -2.037000000    -0.499000000
O     0.087000000    -5.352000000     2.705000000
H     0.423000000    -6.070000000     3.241000000
H    -0.582000000    -5.758000000     2.153000000
O     0.468000000    -4.546000000    -3.282000000
H     1.369000000    -4.274000000    -3.457000000
H    -0.067000000    -3.821000000    -3.605000000
O     3.512000000     4.511000000     0.997000000
H     2.712000000     4.814000000     0.569000000
H     3.998000000     5.312000000     1.192000000
O     4.915000000     1.810000000    -1.808000000
H     5.256000000     2.642000000    -1.479000000
H     5.171000000     1.168000000    -1.146000000
O    -1.969000000    -3.322000000     3.097000000
H    -1.195000000    -3.885000000     3.065000000
H    -1.638000000    -2.450000000     2.882000000
O     0.695000000    -1.200000000     4.787000000
H     0.266000000    -0.959000000     3.966000000
H     0.089000000    -1.812000000     5.204000000
O    -4.059000000     4.408000000    -4.214000000
H    -3.202000000     4.595000000    -3.830000000
H    -3.862000000     4.086000000    -5.094000000
O    -5.204000000     1.848000000     1.060000000
H    -5.074000000     2.527000000     1.722000000
H    -4.386000000     1.837000000     0.564000000
O    -5.225000000    -1.221000000    -3.494000000
H    -5.662000000    -0.920000000    -2.698000000
H    -4.400000000    -1.597000000    -3.187000000
O     3.250000000    -3.627000000     2.304000000
H     2.341000000    -3.927000000     2.292000000
H     3.574000000    -3.811000000     1.422000000
O     5.517000000     0.443000000     0.439000000
H     5.121000000     0.469000000     1.309000000
H     6.451000000     0.583000000     0.596000000
O    -1.619000000    -0.156000000    -4.953000000
H    -1.924000000     0.246000000    -5.766000000
H    -2.125000000     0.279000000    -4.266000000
O     2.872000000     0.567000000     3.893000000
H     2.530000000     1.241000000     3.305000000
H     2.141000000    -0.037000000     4.015000000
O    -0.645000000     4.751000000     2.461000000
H    -1.054000000     5.439000000     1.935000000
H    -0.460000000     4.050000000     1.836000000
O    -1.140000000    -0.522000000     2.796000000
H    -1.686000000     0.258000000     2.896000000
H    -0.685000000    -0.390000000     1.963000000
O     5.521000000    -0.224000000     3.681000000
H     5.929000000     0.592000000     3.970000000
H     4.581000000    -0.046000000     3.710000000
O    -1.475000000    -2.781000000    -4.075000000
H    -2.299000000    -3.080000000    -4.460000000
H    -1.275000000    -1.968000000    -4.538000000
O    -4.222000000     7.823000000     0.656000000
H    -4.098000000     6.891000000     0.835000000
H    -4.866000000     7.847000000    -0.052000000
O     2.255000000    -0.992000000    -2.465000000
H     1.801000000    -1.136000000    -3.294000000
H     1.642000000    -0.476000000    -1.941000000
O    -5.907000000     0.073000000    -1.212000000
H    -6.665000000     0.293000000    -1.754000000
H    -5.820000000     0.813000000    -0.611000000
O     5.031000000    -1.775000000    -1.911000000
H     5.338000000    -1.059000000    -1.355000000
H     4.185000000    -1.475000000    -2.242000000
O     3.557000000    -5.333000000    -0.099000000
H     2.603000000    -5.335000000    -0.019000000
H     3.785000000    -6.248000000    -0.263000000
O    -0.418000000     2.199000000     4.674000000
H     0.280000000     2.679000000     4.227000000
H     0.038000000     1.667000000     5.326000000
O    -2.756000000     1.894000000     2.726000000
H    -1.962000000     2.244000000     3.130000000
H    -3.408000000     2.585000000     2.841000000
O     3.235000000    -3.832000000    -3.246000000
H     3.487000000    -4.179000000    -2.390000000
H     3.221000000    -2.882000000    -3.124000000
O    -2.395000000    -4.166000000    -1.717000000
H    -2.032000000    -3.788000000    -2.518000000
H    -3.338000000    -4.021000000    -1.789000000
O    -2.973000000     1.623000000    -3.077000000
H    -2.927000000     2.107000000    -2.253000000
H    -3.676000000     2.050000000    -3.567000000
O    -1.880000000     5.128000000     4.885000000
H    -1.555000000     4.697000000     4.094000000
H    -2.082000000     6.021000000     4.605000000
O    -1.760000000     4.696000000    -2.617000000
H    -1.738000000     4.555000000    -1.670000000
H    -1.112000000     4.083000000    -2.965000000
O     0.811000000     4.821000000    -0.858000000
H     0.038000000     4.309000000    -0.618000000
H     0.923000000     4.660000000    -1.795000000
O    -1.606000000    -6.205000000    -0.051000000
H    -1.954000000    -5.454000000    -0.531000000
H    -2.246000000    -6.364000000     0.643000000
O    -5.071000000     3.767000000    -1.597000000
H    -4.431000000     3.111000000    -1.322000000
H    -4.815000000     3.990000000    -2.492000000
O    -5.643000000     0.245000000     3.274000000
H    -5.120000000     0.582000000     2.547000000
H    -5.114000000     0.421000000     4.052000000
O    -5.600000000     1.552000000    -4.334000000
H    -5.293000000     0.651000000    -4.234000000
H    -6.533000000     1.511000000    -4.123000000
