158
-3021.69122
C    -0.752000000    -0.690000000    -1.088000000
H    -1.196000000    -1.211000000    -1.933000000
C     0.382000000    -1.167000000    -0.381000000
H     0.835000000    -2.093000000    -0.726000000
C     0.957000000    -0.433000000     0.672000000
H     1.898000000    -0.872000000     1.063000000
C     0.515000000     0.827000000     0.937000000
H     1.113000000     1.421000000     1.623000000
C    -0.573000000     1.322000000     0.217000000
H    -0.971000000     2.310000000     0.433000000
C    -1.298000000     0.546000000    -0.737000000
C    -2.634000000     0.970000000    -1.218000000
O    -3.245000000     0.367000000    -2.076000000
O    -3.091000000     2.017000000    -0.721000000
O     1.395000000     4.828000000     3.624000000
H     1.876000000     4.433000000     2.897000000
H     1.964000000     4.704000000     4.383000000
O     5.437000000    -4.065000000    -1.157000000
H     4.807000000    -4.076000000    -0.438000000
H     4.953000000    -4.412000000    -1.906000000
O    -0.303000000    -3.820000000     2.284000000
H    -0.406000000    -4.735000000     2.546000000
H    -0.664000000    -3.782000000     1.398000000
O     4.608000000    -0.645000000    -3.924000000
H     4.229000000    -0.767000000    -3.053000000
H     5.350000000    -0.058000000    -3.783000000
O    -4.123000000     7.030000000    -2.761000000
H    -4.947000000     6.910000000    -3.233000000
H    -3.965000000     6.187000000    -2.337000000
O    -2.943000000     2.373000000    -4.015000000
H    -2.837000000     3.151000000    -3.468000000
H    -3.196000000     1.682000000    -3.402000000
O     6.406000000     1.816000000    -0.322000000
H     6.715000000     0.941000000    -0.087000000
H     6.075000000     2.182000000     0.498000000
O    -6.303000000     3.626000000     2.471000000
H    -5.548000000     3.080000000     2.253000000
H    -6.598000000     3.298000000     3.320000000
O    -0.829000000    -3.971000000    -3.132000000
H    -1.343000000    -3.200000000    -2.891000000
H    -1.256000000    -4.306000000    -3.921000000
O     3.610000000     1.729000000     3.468000000
H     3.205000000     0.872000000     3.603000000
H     4.090000000     1.640000000     2.645000000
O     1.605000000     0.353000000    -2.499000000
H     1.781000000     0.231000000    -1.566000000
H     1.768000000    -0.507000000    -2.888000000
O     1.990000000    -4.036000000     3.939000000
H     1.136000000    -3.901000000     3.528000000
H     2.445000000    -4.640000000     3.352000000
O     1.838000000     2.108000000     6.139000000
H     1.317000000     1.309000000     6.211000000
H     2.156000000     2.107000000     5.236000000
O    -7.579000000     3.018000000    -0.116000000
H    -7.236000000     3.796000000    -0.556000000
H    -7.231000000     3.074000000     0.774000000
O     2.454000000     4.067000000     1.017000000
H     3.269000000     3.847000000     0.566000000
H     2.028000000     4.705000000     0.445000000
O    -1.000000000    -1.597000000     4.054000000
H    -0.637000000    -2.312000000     3.530000000
H    -1.603000000    -2.027000000     4.660000000
O     1.461000000    -2.182000000    -3.986000000
H     0.887000000    -2.907000000    -3.740000000
H     0.896000000    -1.585000000    -4.476000000
O    -2.643000000    -1.967000000     1.962000000
H    -1.797000000    -1.525000000     1.884000000
H    -3.164000000    -1.389000000     2.519000000
O     3.398000000    -4.750000000     0.847000000
H     3.907000000    -5.538000000     1.038000000
H     2.503000000    -5.067000000     0.721000000
O    -4.040000000     2.608000000    -6.699000000
H    -3.637000000     2.336000000    -5.875000000
H    -4.818000000     2.056000000    -6.778000000
O    -4.618000000    -1.367000000    -3.124000000
H    -5.277000000    -0.889000000    -3.628000000
H    -4.035000000    -0.688000000    -2.785000000
O     3.641000000    -4.217000000    -3.836000000
H     3.325000000    -3.325000000    -3.689000000
H     3.218000000    -4.490000000    -4.650000000
O    -6.363000000     4.642000000    -1.857000000
H    -5.532000000     5.064000000    -2.075000000
H    -6.643000000     4.228000000    -2.674000000
O     4.637000000    -2.040000000     4.190000000
H     3.756000000    -1.708000000     4.018000000
H     4.839000000    -1.739000000     5.075000000
O    -3.214000000     4.625000000    -1.707000000
H    -2.350000000     5.035000000    -1.686000000
H    -3.105000000     3.812000000    -1.214000000
O    -0.906000000     4.126000000     4.843000000
H    -0.049000000     4.257000000     4.439000000
H    -1.077000000     3.189000000     4.742000000
O     1.127000000    -5.620000000    -0.195000000
H     1.126000000    -6.337000000    -0.830000000
H     0.217000000    -5.325000000    -0.166000000
O    -6.006000000    -3.437000000    -1.396000000
H    -5.766000000    -4.250000000    -0.951000000
H    -5.225000000    -3.197000000    -1.895000000
O     3.875000000    -1.256000000    -1.416000000
H     3.515000000    -0.884000000    -0.611000000
H     3.477000000    -2.124000000    -1.478000000
O     4.041000000     2.997000000    -1.279000000
H     4.720000000     2.331000000    -1.175000000
H     4.380000000     3.580000000    -1.958000000
O    -0.552000000    -4.397000000    -6.228000000
H    -1.304000000    -4.720000000    -6.723000000
H    -0.819000000    -3.530000000    -5.923000000
O    -2.814000000     5.510000000     2.023000000
H    -3.229000000     4.668000000     2.211000000
H    -3.374000000     5.909000000     1.356000000
O     6.056000000    -0.112000000     1.694000000
H     5.488000000    -0.852000000     1.480000000
H     6.927000000    -0.497000000     1.787000000
O    -1.821000000    -4.905000000    -0.177000000
H    -1.763000000    -4.956000000    -1.131000000
H    -2.627000000    -4.417000000    -0.010000000
O    -0.923000000     1.054000000     5.046000000
H    -0.634000000     0.330000000     4.491000000
H    -1.600000000     0.673000000     5.605000000
O    -5.961000000     1.590000000    -2.198000000
H    -6.202000000     2.172000000    -1.478000000
H    -5.083000000     1.281000000    -1.972000000
O     2.170000000    -0.877000000     4.359000000
H     2.028000000    -0.683000000     5.285000000
H     1.973000000    -1.810000000     4.277000000
O     3.213000000    -4.576000000     6.357000000
H     2.922000000    -4.165000000     5.543000000
H     2.465000000    -5.102000000     6.641000000
O    -0.725000000     5.708000000    -1.854000000
H     0.016000000     5.248000000    -2.248000000
H    -0.562000000     5.663000000    -0.912000000
O    -1.740000000    -2.063000000    -5.513000000
H    -2.571000000    -1.934000000    -5.969000000
H    -1.392000000    -1.180000000    -5.393000000
O    -0.327000000     5.530000000     0.934000000
H    -0.075000000     4.900000000     1.609000000
H    -1.178000000     5.860000000     1.221000000
O     1.399000000     4.008000000    -2.117000000
H     0.964000000     3.156000000    -2.138000000
H     2.281000000     3.819000000    -1.797000000
O    -4.433000000    -3.280000000    -5.243000000
H    -4.728000000    -4.121000000    -4.896000000
H    -4.556000000    -2.666000000    -4.519000000
O     4.459000000    -2.263000000     1.539000000
H     3.990000000    -2.132000000     2.363000000
H     4.280000000    -3.173000000     1.303000000
O    -0.972000000     0.348000000    -4.419000000
H    -1.555000000     1.070000000    -4.183000000
H    -0.145000000     0.556000000    -3.985000000
O    -7.004000000    -1.012000000    -0.618000000
H    -6.543000000    -0.335000000    -1.112000000
H    -6.730000000    -1.834000000    -1.026000000
O    -4.258000000     2.344000000     1.358000000
H    -4.286000000     1.441000000     1.676000000
H    -3.724000000     2.301000000     0.565000000
O    -8.365000000     1.667000000    -3.423000000
H    -8.803000000     1.568000000    -2.578000000
H    -7.433000000     1.708000000    -3.206000000
