158
-3051.11011
C    -0.993000000    -0.254000000    -1.088000000
H    -1.834000000    -0.420000000    -1.756000000
C    -0.380000000    -1.267000000    -0.391000000
H    -0.639000000    -2.314000000    -0.519000000
C     0.518000000    -0.891000000     0.587000000
H     1.019000000    -1.748000000     1.013000000
C     0.882000000     0.381000000     0.839000000
H     1.653000000     0.588000000     1.577000000
C     0.311000000     1.390000000     0.109000000
H     0.694000000     2.388000000     0.307000000
C    -0.572000000     1.067000000    -0.961000000
C    -1.257000000     2.155000000    -1.720000000
O    -2.256000000     1.869000000    -2.348000000
O    -0.934000000     3.304000000    -1.551000000
O    -6.896000000     2.395000000    -4.212000000
H    -7.120000000     1.977000000    -3.380000000
H    -5.949000000     2.528000000    -4.165000000
O     4.989000000    -3.625000000     3.681000000
H     4.523000000    -4.166000000     3.043000000
H     4.504000000    -2.800000000     3.695000000
O     5.847000000    -2.851000000    -1.040000000
H     6.056000000    -2.672000000    -0.123000000
H     6.329000000    -2.185000000    -1.529000000
O    -1.366000000    -6.477000000     4.537000000
H    -0.839000000    -6.008000000     3.890000000
H    -0.875000000    -7.280000000     4.709000000
O     3.009000000    -5.155000000     1.949000000
H     3.376000000    -6.037000000     2.013000000
H     2.796000000    -5.052000000     1.021000000
O    -3.570000000     4.730000000    -1.317000000
H    -3.994000000     4.324000000    -0.561000000
H    -2.805000000     4.180000000    -1.487000000
O    -0.683000000    -1.680000000     6.136000000
H    -1.602000000    -1.921000000     6.014000000
H    -0.684000000    -1.121000000     6.912000000
O     0.686000000    -4.163000000    -2.674000000
H    -0.253000000    -4.197000000    -2.493000000
H     0.768000000    -3.536000000    -3.393000000
O     3.510000000     3.341000000     0.708000000
H     2.684000000     3.662000000     1.069000000
H     3.525000000     3.673000000    -0.190000000
O     2.469000000     2.347000000    -3.860000000
H     1.925000000     1.562000000    -3.798000000
H     2.610000000     2.468000000    -4.799000000
O     0.273000000    -6.690000000     0.575000000
H    -0.612000000    -6.780000000     0.930000000
H     0.309000000    -5.793000000     0.245000000
O    -1.402000000     3.286000000     4.194000000
H    -1.312000000     4.167000000     4.555000000
H    -2.133000000     3.353000000     3.579000000
O     0.260000000    -4.850000000     3.238000000
H     0.460000000    -4.200000000     3.911000000
H     1.115000000    -5.113000000     2.897000000
O     3.218000000     4.211000000    -1.825000000
H     3.100000000     3.401000000    -2.320000000
H     3.801000000     4.741000000    -2.369000000
O     3.925000000    -1.394000000     3.166000000
H     4.341000000    -0.534000000     3.119000000
H     3.134000000    -1.250000000     3.685000000
O    -3.037000000    -3.935000000     2.118000000
H    -2.397000000    -4.604000000     2.359000000
H    -2.585000000    -3.105000000     2.272000000
O     2.617000000     1.832000000     5.974000000
H     2.359000000     2.349000000     6.738000000
H     1.906000000     1.962000000     5.346000000
O     1.427000000    -1.111000000     4.455000000
H     1.282000000    -0.226000000     4.120000000
H     0.625000000    -1.320000000     4.935000000
O    -3.331000000     3.506000000    -5.980000000
H    -2.428000000     3.799000000    -5.866000000
H    -3.705000000     4.122000000    -6.611000000
O    -4.307000000     0.972000000    -0.976000000
H    -4.517000000     1.778000000    -0.504000000
H    -3.602000000     1.222000000    -1.574000000
O    -3.926000000     6.794000000     1.011000000
H    -3.859000000     6.034000000     0.433000000
H    -4.665000000     7.294000000     0.665000000
O     3.021000000    -1.819000000    -2.498000000
H     2.164000000    -1.878000000    -2.076000000
H     3.625000000    -2.216000000    -1.871000000
O    -1.257000000     1.922000000    -7.469000000
H    -1.702000000     1.505000000    -6.730000000
H    -1.965000000     2.180000000    -8.059000000
O     4.258000000     1.594000000     2.858000000
H     3.877000000     2.241000000     2.264000000
H     4.147000000     1.974000000     3.729000000
O     0.530000000     5.147000000     0.124000000
H     0.927000000     5.748000000    -0.506000000
H    -0.235000000     4.794000000    -0.331000000
O    -6.592000000    -0.100000000    -2.055000000
H    -6.678000000    -0.999000000    -1.737000000
H    -5.880000000     0.271000000    -1.535000000
O    -1.782000000    -1.371000000     2.506000000
H    -1.776000000    -0.971000000     3.376000000
H    -0.929000000    -1.147000000     2.133000000
O    -3.641000000    -5.864000000    -0.256000000
H    -4.483000000    -6.180000000    -0.584000000
H    -3.809000000    -4.959000000     0.004000000
O     4.670000000    -0.116000000     0.303000000
H     4.282000000     0.364000000     1.034000000
H     4.709000000    -1.024000000     0.606000000
O    -2.794000000    -2.326000000    -4.913000000
H    -2.421000000    -2.752000000    -5.685000000
H    -3.686000000    -2.098000000    -5.172000000
O    -3.182000000     7.068000000    -2.816000000
H    -3.116000000     6.291000000    -2.261000000
H    -4.104000000     7.101000000    -3.071000000
O     1.048000000     0.007000000    -5.092000000
H     0.174000000     0.162000000    -4.734000000
H     1.088000000    -0.940000000    -5.225000000
O     2.445000000    -4.709000000    -0.618000000
H     3.256000000    -4.827000000    -1.112000000
H     1.792000000    -4.478000000    -1.280000000
O    -1.979000000     2.115000000     1.756000000
H    -1.204000000     1.554000000     1.711000000
H    -1.699000000     2.941000000     1.361000000
O    -4.297000000     3.011000000     0.874000000
H    -3.492000000     2.799000000     1.346000000
H    -4.864000000     3.409000000     1.534000000
O     0.728000000     1.902000000     3.918000000
H    -0.151000000     2.220000000     4.126000000
H     0.985000000     2.398000000     3.141000000
O     1.209000000     7.030000000    -1.906000000
H     1.209000000     6.393000000    -2.620000000
H     0.987000000     7.861000000    -2.327000000
O    -4.805000000    -2.848000000    -0.556000000
H    -4.308000000    -2.221000000    -0.031000000
H    -5.714000000    -2.559000000    -0.479000000
O    -1.619000000     0.445000000    -4.599000000
H    -1.865000000     1.008000000    -3.865000000
H    -1.874000000    -0.435000000    -4.321000000
O    -0.678000000     5.724000000    -5.946000000
H     0.059000000     6.203000000    -6.323000000
H    -0.342000000     5.381000000    -5.118000000
O     0.424000000     4.654000000    -3.507000000
H    -0.036000000     4.310000000    -2.741000000
H     1.159000000     4.054000000    -3.634000000
O    -2.013000000    -3.624000000    -2.419000000
H    -2.201000000    -3.099000000    -3.196000000
H    -2.787000000    -3.520000000    -1.865000000
O     1.452000000    -3.698000000     5.492000000
H     1.158000000    -3.577000000     6.395000000
H     1.520000000    -2.810000000     5.142000000
O     6.742000000    -2.144000000     1.496000000
H     7.663000000    -2.282000000     1.719000000
H     6.274000000    -2.283000000     2.320000000
O    -4.507000000     2.826000000    -3.531000000
H    -3.811000000     2.332000000    -3.098000000
H    -4.067000000     3.286000000    -4.245000000
O    -4.193000000    -0.851000000     1.317000000
H    -3.946000000    -0.085000000     0.799000000
H    -3.367000000    -1.173000000     1.678000000
O    -4.856000000     1.287000000    -6.491000000
H    -4.287000000     2.053000000    -6.415000000
H    -4.564000000     0.701000000    -5.793000000
O     1.329000000     3.868000000     2.327000000
H     1.517000000     4.670000000     2.816000000
H     1.014000000     4.175000000     1.477000000
