158
-3022.64568
C    -0.375000000    -1.163000000    -0.844000000
H    -0.621000000    -2.030000000    -1.451000000
C     0.880000000    -1.025000000    -0.251000000
H     1.742000000    -1.684000000    -0.314000000
C     1.096000000     0.143000000     0.481000000
H     2.098000000     0.300000000     0.965000000
C     0.075000000     1.061000000     0.715000000
H     0.364000000     1.941000000     1.283000000
C    -1.198000000     0.809000000     0.273000000
H    -1.992000000     1.514000000     0.501000000
C    -1.475000000    -0.315000000    -0.591000000
C    -2.869000000    -0.539000000    -1.233000000
O    -2.915000000    -1.368000000    -2.080000000
O    -3.815000000     0.146000000    -0.901000000
O    -6.407000000     0.342000000    -4.483000000
H    -7.052000000     0.459000000    -3.786000000
H    -6.745000000    -0.388000000    -5.002000000
O    -1.418000000     3.905000000     3.602000000
H    -2.159000000     3.939000000     2.997000000
H    -0.650000000     4.042000000     3.047000000
O     1.787000000     1.264000000     4.158000000
H     0.914000000     1.029000000     4.473000000
H     1.630000000     1.954000000     3.512000000
O     3.104000000    -4.723000000    -0.934000000
H     2.321000000    -5.006000000    -1.405000000
H     3.539000000    -4.117000000    -1.535000000
O     0.679000000    -5.212000000     1.551000000
H     0.454000000    -5.648000000     2.373000000
H    -0.113000000    -5.285000000     1.017000000
O     3.686000000     0.779000000    -4.127000000
H     2.811000000     0.897000000    -3.757000000
H     4.213000000     0.456000000    -3.396000000
O    -4.073000000     1.680000000    -3.603000000
H    -4.957000000     1.537000000    -3.943000000
H    -3.930000000     0.953000000    -2.997000000
O     7.284000000     1.977000000    -1.648000000
H     8.036000000     1.700000000    -1.124000000
H     6.670000000     1.245000000    -1.590000000
O    -7.290000000     1.823000000     2.151000000
H    -6.370000000     1.560000000     2.143000000
H    -7.742000000     1.099000000     2.584000000
O    -3.288000000    -4.060000000    -2.033000000
H    -3.469000000    -4.203000000    -2.962000000
H    -3.055000000    -3.134000000    -1.974000000
O     4.862000000     1.906000000     3.694000000
H     4.498000000     1.924000000     4.580000000
H     5.803000000     2.025000000     3.820000000
O     1.640000000     1.547000000    -2.093000000
H     1.246000000     1.002000000    -1.412000000
H     2.353000000     2.007000000    -1.650000000
O     3.303000000    -4.831000000     1.795000000
H     2.361000000    -4.970000000     1.704000000
H     3.598000000    -4.601000000     0.913000000
O    -0.723000000     4.694000000    -0.616000000
H    -0.222000000     4.295000000     0.096000000
H    -0.414000000     5.600000000    -0.648000000
O     0.420000000    -2.565000000     3.294000000
H     0.324000000    -3.075000000     2.489000000
H    -0.371000000    -2.761000000     3.796000000
O     1.046000000    -2.658000000    -5.615000000
H     1.350000000    -1.787000000    -5.872000000
H     0.134000000    -2.526000000    -5.356000000
O    -4.148000000    -3.779000000     1.254000000
H    -4.193000000    -3.480000000     2.163000000
H    -3.663000000    -3.090000000     0.800000000
O    -0.203000000     0.929000000    -4.364000000
H     0.484000000     0.754000000    -5.007000000
H     0.269000000     1.111000000    -3.552000000
O    -3.257000000    -0.729000000    -6.962000000
H    -3.560000000    -1.195000000    -6.183000000
H    -4.013000000    -0.211000000    -7.240000000
O    -5.114000000    -1.849000000    -3.684000000
H    -5.440000000    -0.968000000    -3.865000000
H    -4.251000000    -1.709000000    -3.293000000
O     2.453000000    -4.314000000    -3.815000000
H     1.860000000    -3.786000000    -4.350000000
H     1.874000000    -4.836000000    -3.260000000
O    -6.774000000     4.153000000    -1.205000000
H    -6.044000000     3.897000000    -0.641000000
H    -6.720000000     3.557000000    -1.952000000
O     4.957000000    -2.780000000     3.908000000
H     5.432000000    -2.066000000     4.333000000
H     4.273000000    -2.344000000     3.401000000
O    -4.490000000     3.160000000    -0.339000000
H    -4.034000000     3.799000000    -0.887000000
H    -4.053000000     2.329000000    -0.526000000
O     0.732000000     4.774000000     2.053000000
H     0.501000000     5.701000000     2.009000000
H     1.674000000     4.769000000     2.221000000
O     0.495000000    -5.741000000    -2.403000000
H     0.668000000    -6.592000000    -2.806000000
H    -0.285000000    -5.884000000    -1.867000000
O    -7.322000000    -3.546000000    -2.424000000
H    -6.938000000    -4.381000000    -2.689000000
H    -6.582000000    -2.939000000    -2.397000000
O     4.708000000     0.316000000    -1.560000000
H     4.877000000    -0.622000000    -1.477000000
H     4.929000000     0.676000000    -0.702000000
O     3.804000000     3.425000000    -1.570000000
H     4.407000000     3.760000000    -2.233000000
H     4.315000000     2.775000000    -1.088000000
O    -4.504000000     4.004000000     2.401000000
H    -4.659000000     3.625000000     1.536000000
H    -5.030000000     4.804000000     2.410000000
O     5.042000000     2.284000000     0.712000000
H     5.188000000     1.925000000     1.587000000
H     5.421000000     3.162000000     0.747000000
O     7.837000000    -0.165000000     0.026000000
H     7.138000000    -0.548000000     0.556000000
H     8.125000000    -0.878000000    -0.543000000
O    -1.819000000    -6.148000000    -1.199000000
H    -2.274000000    -5.308000000    -1.135000000
H    -2.101000000    -6.632000000    -0.422000000
O    -2.530000000    -0.139000000     3.430000000
H    -1.639000000    -0.068000000     3.086000000
H    -2.564000000    -1.007000000     3.831000000
O     3.182000000     3.804000000     2.875000000
H     3.580000000     2.936000000     2.804000000
H     3.711000000     4.358000000     2.301000000
O    -6.689000000     0.473000000    -0.546000000
H    -6.755000000     0.611000000     0.399000000
H    -5.793000000     0.163000000    -0.681000000
O     3.147000000    -1.234000000     2.868000000
H     3.121000000    -0.347000000     3.227000000
H     2.230000000    -1.450000000     2.697000000
O     1.696000000    -2.830000000     5.728000000
H     1.538000000    -3.576000000     5.149000000
H     1.304000000    -2.085000000     5.273000000
O    -1.267000000    -4.491000000    -5.135000000
H    -1.663000000    -3.625000000    -5.229000000
H    -0.411000000    -4.321000000    -4.740000000
O     4.606000000     5.517000000     1.023000000
H     4.996000000     6.386000000     1.119000000
H     3.990000000     5.610000000     0.296000000
O    -2.348000000     6.559000000     1.347000000
H    -2.276000000     6.814000000     2.267000000
H    -2.570000000     5.628000000     1.374000000
O    -2.121000000     2.879000000    -4.837000000
H    -2.850000000     2.470000000    -4.370000000
H    -1.406000000     2.247000000    -4.765000000
O    -4.487000000    -4.477000000    -4.536000000
H    -5.346000000    -4.878000000    -4.409000000
H    -4.633000000    -3.543000000    -4.384000000
O     5.250000000    -1.211000000     1.127000000
H     5.530000000    -2.118000000     1.004000000
H     4.325000000    -1.276000000     1.363000000
O    -1.303000000    -1.882000000    -4.371000000
H    -1.658000000    -1.649000000    -3.514000000
H    -1.000000000    -1.052000000    -4.739000000
O    -8.214000000    -2.105000000    -0.301000000
H    -7.828000000    -1.245000000    -0.468000000
H    -8.101000000    -2.582000000    -1.124000000
O    -4.866000000     0.593000000     1.548000000
H    -4.172000000     0.444000000     2.189000000
H    -4.429000000     0.519000000     0.699000000
O    -8.190000000     0.882000000    -2.681000000
H    -9.077000000     0.554000000    -2.530000000
H    -7.771000000     0.843000000    -1.821000000
