158
-3025.17444
C    -1.323000000    -0.098000000     0.535000000
H    -2.237000000    -0.284000000     1.093000000
C    -0.133000000    -0.556000000     1.136000000
H    -0.180000000    -0.983000000     2.134000000
C     1.094000000    -0.389000000     0.476000000
H     2.032000000    -0.783000000     0.992000000
C     1.131000000     0.178000000    -0.809000000
H     2.088000000     0.173000000    -1.324000000
C    -0.061000000     0.735000000    -1.400000000
H    -0.060000000     1.091000000    -2.427000000
C    -1.299000000     0.602000000    -0.718000000
C    -2.560000000     1.020000000    -1.377000000
O    -3.550000000     1.284000000    -0.692000000
O    -2.510000000     1.294000000    -2.610000000
O    -2.842000000     3.511000000    -4.013000000
H    -3.115000000     2.671000000    -3.643000000
H    -3.152000000     3.486000000    -4.918000000
O    -5.463000000     3.169000000    -0.985000000
H    -6.125000000     2.914000000    -1.628000000
H    -4.708000000     2.617000000    -1.187000000
O     1.306000000     6.129000000    -3.231000000
H     0.845000000     6.302000000    -2.410000000
H     1.012000000     5.256000000    -3.492000000
O     7.403000000     1.860000000     1.138000000
H     7.522000000     2.463000000     1.871000000
H     6.757000000     1.227000000     1.451000000
O     2.599000000     1.969000000    -5.965000000
H     2.701000000     2.784000000    -5.472000000
H     1.675000000     1.954000000    -6.214000000
O    -0.735000000    -0.268000000     6.512000000
H    -0.536000000     0.300000000     7.256000000
H    -0.361000000    -1.116000000     6.751000000
O    -0.340000000     2.737000000    -4.523000000
H    -1.042000000     3.062000000    -3.959000000
H     0.415000000     2.651000000    -3.942000000
O    -1.043000000    -2.761000000    -1.220000000
H    -0.730000000    -1.946000000    -0.826000000
H    -0.528000000    -2.851000000    -2.023000000
O     7.258000000    -0.816000000     3.764000000
H     6.631000000    -1.263000000     3.195000000
H     7.964000000    -1.450000000     3.888000000
O    -3.348000000    -0.381000000     5.683000000
H    -3.368000000     0.478000000     5.260000000
H    -2.418000000    -0.558000000     5.823000000
O    -6.704000000     2.444000000     1.306000000
H    -6.231000000     2.746000000     0.532000000
H    -7.626000000     2.475000000     1.051000000
O     5.300000000     1.299000000    -2.081000000
H     4.382000000     1.448000000    -1.852000000
H     5.575000000     0.579000000    -1.514000000
O     5.058000000     0.925000000     4.569000000
H     5.377000000     0.806000000     5.463000000
H     5.450000000     0.203000000     4.077000000
O    -3.699000000    -2.201000000     3.357000000
H    -3.726000000    -1.760000000     4.206000000
H    -2.811000000    -2.553000000     3.298000000
O     0.378000000     3.548000000     0.098000000
H     1.293000000     3.671000000     0.351000000
H     0.193000000     2.633000000     0.306000000
O     4.524000000    -3.613000000     0.876000000
H     3.604000000    -3.672000000     0.618000000
H     4.833000000    -4.519000000     0.874000000
O    -2.657000000    -4.832000000    -0.453000000
H    -2.121000000    -4.160000000    -0.873000000
H    -3.407000000    -4.354000000    -0.100000000
O    -1.694000000    -2.171000000    -6.424000000
H    -1.920000000    -2.037000000    -5.503000000
H    -1.476000000    -1.296000000    -6.746000000
O    -5.047000000     3.444000000     3.058000000
H    -5.713000000     2.931000000     2.600000000
H    -4.227000000     3.221000000     2.616000000
O     5.481000000    -0.490000000     1.013000000
H     5.710000000    -0.839000000     0.152000000
H     5.007000000    -1.202000000     1.442000000
O    -0.649000000     3.520000000    -7.036000000
H     0.195000000     3.446000000    -7.482000000
H    -0.469000000     3.248000000    -6.136000000
O    -0.841000000     0.664000000    -6.246000000
H    -0.515000000     0.887000000    -7.118000000
H    -0.821000000     1.490000000    -5.764000000
O     1.756000000     3.256000000    -2.814000000
H     2.615000000     3.353000000    -3.225000000
H     1.935000000     3.290000000    -1.874000000
O    -5.317000000    -0.758000000    -0.767000000
H    -4.668000000    -0.072000000    -0.608000000
H    -5.785000000    -0.842000000     0.064000000
O     2.658000000    -5.007000000    -0.760000000
H     3.008000000    -5.771000000    -0.301000000
H     1.748000000    -5.236000000    -0.946000000
O     3.269000000    -3.119000000     5.646000000
H     2.350000000    -3.375000000     5.728000000
H     3.758000000    -3.915000000     5.856000000
O    -6.077000000     1.296000000    -5.698000000
H    -5.434000000     1.750000000    -6.242000000
H    -5.687000000     1.286000000    -4.824000000
O    -4.431000000    -2.990000000    -2.840000000
H    -3.984000000    -2.330000000    -2.311000000
H    -5.028000000    -3.422000000    -2.230000000
O    -6.595000000    -0.189000000     1.476000000
H    -6.417000000     0.741000000     1.340000000
H    -6.838000000    -0.254000000     2.400000000
O    -2.300000000    -1.053000000    -3.851000000
H    -2.565000000    -0.259000000    -3.387000000
H    -1.351000000    -1.092000000    -3.737000000
O     4.158000000    -0.476000000    -3.809000000
H     3.207000000    -0.505000000    -3.913000000
H     4.410000000     0.383000000    -4.148000000
O     5.660000000    -1.398000000    -1.522000000
H     5.710000000    -2.353000000    -1.542000000
H     5.349000000    -1.156000000    -2.394000000
O     0.198000000    -4.830000000     1.346000000
H    -0.569000000    -5.339000000     1.609000000
H    -0.160000000    -4.096000000     0.847000000
O     4.453000000     3.497000000     4.277000000
H     4.680000000     2.571000000     4.358000000
H     5.141000000     3.864000000     3.722000000
O     2.710000000    -5.914000000     2.566000000
H     2.500000000    -6.599000000     3.202000000
H     1.870000000    -5.494000000     2.381000000
O    -0.876000000    -3.211000000     3.752000000
H    -0.495000000    -3.349000000     4.620000000
H    -0.124000000    -3.206000000     3.159000000
O     4.756000000    -3.826000000    -2.256000000
H     4.953000000    -4.618000000    -2.755000000
H     3.900000000    -3.997000000    -1.863000000
O     4.018000000     1.726000000     1.468000000
H     4.028000000     1.864000000     2.416000000
H     4.523000000     0.924000000     1.337000000
O    -5.198000000     0.675000000    -3.223000000
H    -5.455000000     0.109000000    -2.495000000
H    -4.329000000     0.996000000    -2.982000000
O    -2.091000000     6.006000000    -3.058000000
H    -2.523000000     5.200000000    -3.342000000
H    -2.448000000     6.174000000    -2.186000000
O    -2.150000000     4.518000000     3.281000000
H    -2.264000000     3.785000000     2.675000000
H    -2.453000000     4.181000000     4.124000000
O    -6.588000000    -2.219000000     3.699000000
H    -5.745000000    -2.008000000     3.298000000
H    -6.400000000    -2.278000000     4.635000000
O     3.074000000     3.571000000    -0.330000000
H     3.591000000     2.954000000     0.188000000
H     3.623000000     4.353000000    -0.388000000
O    -4.458000000    -3.761000000     1.167000000
H    -4.586000000    -4.389000000     1.878000000
H    -4.237000000    -2.941000000     1.609000000
O     1.045000000    -0.968000000    -4.607000000
H     0.163000000    -0.767000000    -4.921000000
H     1.210000000    -1.860000000    -4.911000000
O    -2.773000000     2.276000000     1.858000000
H    -2.675000000     1.394000000     2.216000000
H    -3.028000000     2.138000000     0.946000000
O    -4.800000000     5.938000000    -1.002000000
H    -5.089000000     5.854000000    -1.911000000
H    -5.039000000     5.105000000    -0.596000000
O     5.035000000    -2.730000000     3.510000000
H     4.258000000    -2.849000000     4.056000000
H     4.749000000    -2.976000000     2.630000000
