158
-3041.10480
C     0.626000000     1.179000000    -0.606000000
H     1.052000000     2.150000000    -0.844000000
C     0.527000000     0.924000000     0.759000000
H     0.947000000     1.603000000     1.496000000
C    -0.058000000    -0.258000000     1.250000000
H    -0.079000000    -0.481000000     2.276000000
C    -0.512000000    -1.187000000     0.240000000
H    -0.994000000    -2.094000000     0.597000000
C    -0.446000000    -0.934000000    -1.128000000
H    -0.847000000    -1.679000000    -1.810000000
C     0.120000000     0.300000000    -1.577000000
C     0.137000000     0.688000000    -3.067000000
O    -0.433000000    -0.098000000    -3.853000000
O     0.727000000     1.746000000    -3.416000000
O     1.234000000    -3.964000000    -2.257000000
H     1.873000000    -3.267000000    -2.111000000
H     1.691000000    -4.596000000    -2.812000000
O    -1.153000000    -3.386000000     4.155000000
H    -1.109000000    -3.438000000     5.110000000
H    -1.668000000    -2.599000000     3.981000000
O    -1.633000000     4.920000000    -0.484000000
H    -1.482000000     5.828000000    -0.220000000
H    -0.929000000     4.428000000    -0.061000000
O    -3.676000000     1.778000000    -1.119000000
H    -4.344000000     2.237000000    -0.610000000
H    -4.169000000     1.303000000    -1.787000000
O     2.813000000    -3.124000000     3.801000000
H     2.560000000    -3.598000000     4.594000000
H     2.130000000    -3.340000000     3.165000000
O     1.002000000    -1.762000000     6.799000000
H     0.607000000    -1.138000000     6.189000000
H     0.467000000    -2.551000000     6.714000000
O     4.752000000    -0.569000000     5.915000000
H     3.999000000    -0.029000000     5.674000000
H     5.370000000    -0.455000000     5.192000000
O     3.463000000    -0.484000000     2.873000000
H     3.361000000    -1.359000000     3.246000000
H     2.883000000     0.069000000     3.396000000
O     2.838000000     5.739000000    -4.952000000
H     2.574000000     5.120000000    -4.271000000
H     3.789000000     5.796000000    -4.867000000
O    -0.168000000     5.820000000    -5.758000000
H    -0.410000000     5.281000000    -6.512000000
H    -0.551000000     5.366000000    -5.007000000
O     4.131000000    -3.349000000     1.112000000
H     3.432000000    -2.750000000     0.850000000
H     4.062000000    -3.394000000     2.066000000
O    -2.644000000     2.498000000     1.500000000
H    -1.735000000     2.415000000     1.790000000
H    -2.623000000     2.250000000     0.575000000
O    -0.424000000    -4.494000000    -0.228000000
H    -1.046000000    -4.910000000    -0.825000000
H     0.268000000    -4.158000000    -0.798000000
O    -3.422000000    -1.438000000    -0.293000000
H    -3.522000000    -1.091000000     0.593000000
H    -3.243000000    -0.669000000    -0.834000000
O     2.940000000    -1.970000000    -2.181000000
H     2.611000000    -1.703000000    -1.322000000
H     3.626000000    -1.333000000    -2.383000000
O    -3.123000000     4.612000000     3.051000000
H    -3.852000000     4.460000000     3.652000000
H    -3.054000000     3.801000000     2.548000000
O    -3.770000000     3.073000000    -3.588000000
H    -3.045000000     3.698000000    -3.586000000
H    -3.864000000     2.812000000    -2.672000000
O    -1.594000000    -3.687000000    -4.206000000
H    -2.166000000    -3.392000000    -3.497000000
H    -1.350000000    -2.884000000    -4.667000000
O    -0.259000000     2.639000000     3.721000000
H    -0.775000000     1.955000000     4.147000000
H     0.211000000     3.066000000     4.437000000
O     3.627000000     0.823000000    -2.925000000
H     2.774000000     1.255000000    -2.979000000
H     3.846000000     0.611000000    -3.832000000
O    -1.296000000     0.251000000     5.121000000
H    -1.992000000     0.216000000     5.778000000
H    -1.649000000    -0.228000000     4.372000000
O     1.872000000     3.836000000    -2.678000000
H     1.171000000     4.284000000    -2.205000000
H     1.438000000     3.097000000    -3.106000000
O     3.793000000     3.374000000     4.230000000
H     4.573000000     3.873000000     3.988000000
H     3.276000000     3.333000000     3.426000000
O    -0.362000000     1.528000000    -7.792000000
H     0.386000000     2.122000000    -7.858000000
H    -0.752000000     1.537000000    -8.666000000
O    -2.713000000    -5.305000000     2.928000000
H    -3.105000000    -4.882000000     2.165000000
H    -2.221000000    -4.609000000     3.362000000
O    -3.143000000    -0.173000000    -3.446000000
H    -2.196000000    -0.134000000    -3.586000000
H    -3.517000000    -0.105000000    -4.324000000
O    -1.877000000     5.042000000    -3.255000000
H    -1.512000000     4.773000000    -2.411000000
H    -2.358000000     5.847000000    -3.062000000
O     0.638000000    -3.587000000     2.109000000
H     0.024000000    -3.564000000     2.842000000
H     0.090000000    -3.752000000     1.342000000
O     4.976000000     2.889000000    -5.465000000
H     5.216000000     2.669000000    -6.365000000
H     4.093000000     2.537000000    -5.360000000
O    -2.144000000     2.712000000    -5.672000000
H    -1.354000000     2.257000000    -5.964000000
H    -2.236000000     2.464000000    -4.752000000
O    -4.141000000    -0.222000000    -5.875000000
H    -3.581000000    -0.540000000    -6.584000000
H    -5.004000000    -0.585000000    -6.070000000
O     2.333000000     2.156000000    -5.495000000
H     1.831000000     2.797000000    -5.998000000
H     1.695000000     1.773000000    -4.892000000
O     0.029000000     2.315000000     6.870000000
H    -0.319000000     1.594000000     6.346000000
H     0.908000000     2.029000000     7.118000000
O    -2.140000000    -5.626000000    -1.982000000
H    -2.353000000    -4.889000000    -2.554000000
H    -2.966000000    -6.099000000    -1.882000000
O     4.867000000     4.718000000    -1.443000000
H     4.216000000     4.604000000    -2.135000000
H     4.849000000     3.892000000    -0.960000000
O     3.214000000     3.954000000     1.663000000
H     3.775000000     4.704000000     1.470000000
H     3.487000000     3.283000000     1.038000000
O    -1.481000000    -1.382000000    -6.108000000
H    -1.336000000    -0.841000000    -6.885000000
H    -1.098000000    -0.877000000    -5.391000000
O    -3.341000000    -4.158000000     0.329000000
H    -2.863000000    -3.361000000     0.098000000
H    -3.184000000    -4.752000000    -0.404000000
O     4.549000000     2.008000000    -0.347000000
H     5.502000000     1.952000000    -0.419000000
H     4.223000000     1.443000000    -1.047000000
O    -4.285000000    -0.136000000     1.876000000
H    -3.826000000     0.686000000     2.051000000
H    -5.176000000     0.130000000     1.650000000
O     0.413000000     4.215000000     1.359000000
H    -0.052000000     3.595000000     1.921000000
H     1.339000000     4.029000000     1.512000000
O     2.574000000     0.918000000     5.337000000
H     2.336000000     1.078000000     6.251000000
H     3.089000000     1.685000000     5.087000000
O     1.717000000    -1.695000000    -4.505000000
H     2.147000000    -1.981000000    -3.699000000
H     0.870000000    -1.355000000    -4.218000000
O    -3.070000000    -1.605000000     3.922000000
H    -3.311000000    -1.132000000     3.125000000
H    -3.873000000    -1.618000000     4.444000000
O     2.429000000    -1.459000000     0.414000000
H     2.602000000    -0.638000000     0.876000000
H     1.474000000    -1.528000000     0.398000000
O    -4.155000000     2.876000000     5.315000000
H    -3.337000000     2.973000000     4.827000000
H    -3.879000000     2.719000000     6.218000000
O     2.151000000    -1.133000000    -6.894000000
H     2.710000000    -0.357000000    -6.928000000
H     2.062000000    -1.323000000    -5.960000000
O    -3.779000000    -3.293000000    -2.650000000
H    -3.692000000    -2.735000000    -1.877000000
H    -4.380000000    -2.816000000    -3.222000000
