158
-2986.40583
C    -1.383000000    -0.279000000     0.530000000
H    -2.320000000    -0.568000000     0.999000000
C    -0.267000000    -0.060000000     1.294000000
H    -0.318000000    -0.235000000     2.366000000
C     1.001000000     0.084000000     0.646000000
H     1.907000000     0.059000000     1.303000000
C     1.157000000     0.111000000    -0.698000000
H     2.151000000     0.153000000    -1.137000000
C    -0.049000000     0.054000000    -1.440000000
H    -0.135000000    -0.025000000    -2.520000000
C    -1.309000000    -0.144000000    -0.831000000
C    -2.491000000    -0.240000000    -1.695000000
O    -3.572000000    -0.311000000    -1.149000000
O    -2.418000000     0.065000000    -2.870000000
O    -2.444000000     2.520000000    -3.740000000
H    -2.936000000     3.047000000    -3.110000000
H    -2.354000000     1.666000000    -3.318000000
O     1.549000000     3.160000000    -3.794000000
H     1.886000000     4.015000000    -3.528000000
H     2.083000000     2.531000000    -3.308000000
O     2.862000000    -0.899000000    -4.018000000
H     3.326000000    -1.735000000    -3.966000000
H     1.935000000    -1.137000000    -3.983000000
O    -1.395000000    -4.124000000    -0.889000000
H    -0.515000000    -3.749000000    -0.914000000
H    -1.625000000    -4.135000000     0.040000000
O    -2.859000000     3.395000000     0.430000000
H    -2.575000000     3.817000000    -0.381000000
H    -2.490000000     2.513000000     0.383000000
O    -7.246000000    -3.950000000    -0.420000000
H    -6.982000000    -3.083000000    -0.112000000
H    -6.474000000    -4.499000000    -0.284000000
O     2.823000000    -2.342000000     4.377000000
H     2.272000000    -1.562000000     4.314000000
H     3.236000000    -2.275000000     5.238000000
O    -5.098000000     2.297000000    -5.132000000
H    -5.286000000     1.455000000    -4.718000000
H    -4.143000000     2.330000000    -5.184000000
O    -0.443000000     2.730000000    -5.668000000
H    -1.269000000     2.671000000    -5.187000000
H     0.232000000     2.654000000    -4.994000000
O     3.041000000    -4.530000000     2.284000000
H     3.847000000    -4.647000000     2.787000000
H     2.510000000    -3.937000000     2.816000000
O    -6.979000000    -1.419000000     0.750000000
H    -7.739000000    -0.993000000     1.145000000
H    -6.345000000    -0.713000000     0.626000000
O     0.837000000     0.347000000     6.300000000
H     0.699000000    -0.598000000     6.239000000
H     1.781000000     0.458000000     6.186000000
O    -4.639000000    -2.607000000    -0.866000000
H    -4.213000000    -1.803000000    -1.163000000
H    -5.387000000    -2.306000000    -0.351000000
O     5.023000000     0.365000000     1.972000000
H     5.446000000    -0.423000000     2.313000000
H     5.264000000     1.054000000     2.592000000
O    -0.763000000     2.279000000     5.317000000
H    -0.173000000     1.546000000     5.495000000
H    -0.202000000     2.947000000     4.924000000
O     1.284000000    -3.263000000    -0.975000000
H     1.650000000    -2.564000000    -0.433000000
H     2.046000000    -3.763000000    -1.269000000
O    -5.169000000    -1.116000000    -6.085000000
H    -5.714000000    -1.551000000    -5.429000000
H    -4.295000000    -1.098000000    -5.696000000
O     3.283000000     2.210000000    -2.044000000
H     3.500000000     1.280000000    -1.984000000
H     3.730000000     2.609000000    -1.298000000
O    -3.621000000    -1.675000000     3.331000000
H    -4.308000000    -1.010000000     3.380000000
H    -2.937000000    -1.355000000     3.919000000
O     5.865000000    -2.379000000    -0.959000000
H     5.507000000    -3.170000000    -0.555000000
H     6.810000000    -2.451000000    -0.829000000
O    -1.618000000    -4.494000000    -3.540000000
H    -1.723000000    -4.377000000    -2.596000000
H    -1.120000000    -5.307000000    -3.626000000
O    -2.080000000    -0.383000000     5.267000000
H    -1.587000000     0.349000000     4.896000000
H    -2.979000000    -0.058000000     5.329000000
O     0.926000000     0.580000000    -6.552000000
H     0.251000000     1.258000000    -6.514000000
H     0.451000000    -0.238000000    -6.403000000
O    -0.632000000     3.680000000    -1.870000000
H    -1.159000000     3.195000000    -2.505000000
H     0.268000000     3.411000000    -2.051000000
O    -5.271000000     0.923000000     0.571000000
H    -5.094000000     0.545000000     1.433000000
H    -4.732000000     0.408000000    -0.031000000
O     3.855000000    -0.007000000     6.282000000
H     4.496000000    -0.144000000     6.980000000
H     4.108000000     0.826000000     5.884000000
O    -5.688000000     0.190000000    -3.072000000
H    -4.930000000    -0.067000000    -2.547000000
H    -6.116000000    -0.636000000    -3.295000000
O    -4.822000000    -4.899000000    -2.450000000
H    -4.906000000    -4.112000000    -1.912000000
H    -4.329000000    -4.612000000    -3.219000000
O    -2.316000000    -0.228000000    -5.418000000
H    -2.247000000    -0.253000000    -4.463000000
H    -1.612000000    -0.801000000    -5.724000000
O     7.461000000     0.863000000    -1.318000000
H     7.921000000     0.031000000    -1.208000000
H     6.544000000     0.616000000    -1.435000000
O    -5.156000000    -5.361000000     0.714000000
H    -5.126000000    -5.992000000     1.434000000
H    -4.482000000    -4.717000000     0.932000000
O     0.839000000     4.251000000     4.117000000
H     0.854000000     4.136000000     3.167000000
H     1.753000000     4.406000000     4.354000000
O     0.403000000    -2.764000000    -3.837000000
H    -0.261000000    -3.439000000    -3.979000000
H     0.588000000    -2.803000000    -2.899000000
O     4.863000000     0.107000000    -0.949000000
H     4.585000000     0.144000000    -0.034000000
H     5.282000000    -0.749000000    -1.038000000
O    -7.000000000     2.201000000    -1.718000000
H    -6.443000000     1.499000000    -2.054000000
H    -6.741000000     2.294000000    -0.801000000
O    -7.005000000    -2.276000000    -3.680000000
H    -6.717000000    -2.909000000    -4.337000000
H    -7.580000000    -2.776000000    -3.101000000
O     3.090000000     5.707000000    -0.214000000
H     3.774000000     6.374000000    -0.147000000
H     3.448000000     4.950000000     0.249000000
O     6.791000000     3.355000000    -1.853000000
H     6.086000000     3.565000000    -1.240000000
H     7.170000000     2.544000000    -1.513000000
O     4.457000000     0.845000000    -5.018000000
H     3.904000000     1.619000000    -5.122000000
H     3.853000000     0.153000000    -4.748000000
O     4.990000000     3.108000000     0.365000000
H     5.722000000     3.362000000     0.928000000
H     5.108000000     2.168000000     0.229000000
O    -3.093000000    -3.554000000     1.256000000
H    -3.006000000    -2.953000000     1.996000000
H    -3.306000000    -2.990000000     0.513000000
O     3.289000000     2.482000000     5.556000000
H     2.752000000     3.070000000     6.088000000
H     3.646000000     3.041000000     4.866000000
O    -0.419000000    -2.110000000    -6.210000000
H    -0.176000000    -2.221000000    -5.290000000
H     0.324000000    -2.467000000    -6.698000000
O     5.373000000    -3.083000000    -3.601000000
H     5.251000000    -2.846000000    -2.681000000
H     4.516000000    -3.403000000    -3.882000000
O     0.683000000     4.660000000     1.096000000
H     1.362000000     5.289000000     0.854000000
H     0.507000000     4.175000000     0.290000000
O    -5.457000000     3.630000000     1.276000000
H    -4.508000000     3.743000000     1.318000000
H    -5.579000000     2.719000000     1.009000000
O    -5.652000000    -0.135000000     3.289000000
H    -6.183000000     0.661000000     3.304000000
H    -6.220000000    -0.808000000     3.667000000
O     5.202000000    -2.215000000     3.069000000
H     4.312000000    -2.328000000     3.402000000
H     5.758000000    -2.282000000     3.846000000
