158
-3024.75434
C    -1.056000000    -0.991000000     0.390000000
H    -1.681000000    -1.835000000     0.673000000
C     0.043000000    -0.599000000     1.175000000
H     0.177000000    -1.053000000     2.154000000
C     0.946000000     0.434000000     0.714000000
H     1.832000000     0.745000000     1.293000000
C     0.738000000     0.954000000    -0.534000000
H     1.390000000     1.746000000    -0.894000000
C    -0.329000000     0.554000000    -1.297000000
H    -0.411000000     1.002000000    -2.284000000
C    -1.250000000    -0.424000000    -0.870000000
C    -2.410000000    -0.862000000    -1.811000000
O    -3.241000000    -1.626000000    -1.446000000
O    -2.480000000    -0.451000000    -2.968000000
O    -2.298000000     2.466000000    -2.853000000
H    -3.169000000     2.862000000    -2.816000000
H    -2.464000000     1.538000000    -3.017000000
O     1.412000000     3.385000000    -2.976000000
H     2.065000000     3.967000000    -2.587000000
H     1.852000000     2.537000000    -3.036000000
O     2.883000000    -1.736000000    -3.834000000
H     3.601000000    -2.332000000    -4.045000000
H     2.557000000    -2.043000000    -2.988000000
O    -1.694000000    -3.835000000    -2.581000000
H    -1.292000000    -4.151000000    -1.771000000
H    -2.177000000    -3.051000000    -2.318000000
O    -1.001000000     2.860000000     4.227000000
H    -0.258000000     2.460000000     4.679000000
H    -0.701000000     2.970000000     3.325000000
O     4.312000000    -0.344000000     4.767000000
H     3.373000000    -0.529000000     4.775000000
H     4.577000000    -0.408000000     5.685000000
O    -5.441000000     0.636000000    -4.806000000
H    -5.664000000    -0.048000000    -4.174000000
H    -4.546000000     0.430000000    -5.076000000
O    -0.453000000     2.512000000    -5.039000000
H    -0.954000000     2.766000000    -4.264000000
H     0.290000000     2.017000000    -4.692000000
O     0.638000000    -5.059000000     2.916000000
H    -0.202000000    -4.618000000     3.041000000
H     1.290000000    -4.412000000     3.183000000
O    -7.070000000    -1.826000000     1.627000000
H    -7.472000000    -1.072000000     2.059000000
H    -6.379000000    -1.450000000     1.082000000
O     0.469000000     0.935000000     6.160000000
H     1.293000000     1.059000000     5.689000000
H     0.299000000    -0.005000000     6.102000000
O    -5.159000000    -3.716000000    -1.104000000
H    -4.589000000    -3.030000000    -1.453000000
H    -6.040000000    -3.348000000    -1.163000000
O     5.739000000     0.855000000     2.547000000
H     5.389000000     0.390000000     3.307000000
H     4.983000000     0.979000000     1.973000000
O    -2.069000000     0.153000000    -8.043000000
H    -2.512000000     0.150000000    -7.195000000
H    -1.189000000     0.479000000    -7.853000000
O     1.473000000    -1.813000000     4.090000000
H     1.707000000    -2.489000000     4.725000000
H     0.516000000    -1.805000000     4.089000000
O     1.912000000    -2.651000000     1.471000000
H     1.709000000    -2.281000000     2.331000000
H     2.747000000    -2.252000000     1.230000000
O     2.887000000     0.937000000    -3.486000000
H     2.734000000     0.028000000    -3.741000000
H     3.279000000     0.879000000    -2.614000000
O    -4.193000000    -2.260000000     3.093000000
H    -5.128000000    -2.464000000     3.107000000
H    -4.136000000    -1.372000000     3.447000000
O    -2.057000000    -5.415000000    -4.713000000
H    -1.852000000    -4.933000000    -3.912000000
H    -1.524000000    -6.208000000    -4.659000000
O    -3.334000000     1.343000000     1.509000000
H    -2.398000000     1.348000000     1.308000000
H    -3.374000000     1.246000000     2.460000000
O     5.820000000    -1.934000000     3.163000000
H     5.326000000    -1.679000000     3.942000000
H     6.678000000    -1.526000000     3.279000000
O     1.391000000    -0.864000000    -6.320000000
H     1.558000000    -0.959000000    -5.383000000
H     2.070000000    -1.393000000    -6.740000000
O    -0.719000000     3.946000000    -1.294000000
H    -1.284000000     3.458000000    -1.893000000
H     0.131000000     3.970000000    -1.733000000
O    -5.158000000    -0.747000000     0.058000000
H    -4.748000000    -0.081000000     0.610000000
H    -4.429000000    -1.141000000    -0.422000000
O     3.837000000     2.635000000     1.854000000
H     3.153000000     3.194000000     1.486000000
H     4.586000000     3.220000000     1.973000000
O    -7.692000000    -0.995000000    -3.194000000
H    -6.946000000    -1.545000000    -3.433000000
H    -8.377000000    -1.237000000    -3.817000000
O    -4.982000000    -1.845000000    -3.797000000
H    -4.369000000    -1.832000000    -4.531000000
H    -4.449000000    -1.617000000    -3.035000000
O     4.722000000     2.670000000     4.700000000
H     5.241000000     2.063000000     5.227000000
H     4.893000000     2.408000000     3.795000000
O    -1.490000000    -3.667000000     3.701000000
H    -2.151000000    -3.448000000     3.044000000
H    -1.904000000    -3.457000000     4.538000000
O    -2.642000000    -0.020000000    -5.338000000
H    -2.473000000     0.150000000    -4.411000000
H    -2.467000000    -0.955000000    -5.446000000
O     6.233000000    -0.578000000    -1.233000000
H     7.175000000    -0.413000000    -1.189000000
H     6.160000000    -1.442000000    -1.639000000
O    -5.315000000    -6.452000000    -1.391000000
H    -5.283000000    -5.503000000    -1.270000000
H    -4.985000000    -6.809000000    -0.566000000
O     5.862000000     4.148000000     2.336000000
H     5.787000000     5.086000000     2.165000000
H     6.529000000     4.081000000     3.019000000
O     0.116000000    -4.894000000    -0.508000000
H     0.411000000    -4.402000000     0.258000000
H     0.850000000    -5.470000000    -0.719000000
O     1.700000000    -2.307000000    -1.430000000
H     1.054000000    -1.635000000    -1.211000000
H     2.232000000    -2.395000000    -0.639000000
O    -7.521000000     0.615000000    -1.135000000
H    -7.864000000     0.146000000    -1.896000000
H    -6.909000000     0.000000000    -0.731000000
O     2.368000000     4.749000000     0.359000000
H     2.321000000     5.642000000     0.702000000
H     3.000000000     4.800000000    -0.357000000
O     1.463000000     5.430000000     4.245000000
H     2.189000000     5.933000000     3.877000000
H     0.761000000     6.071000000     4.360000000
O     5.997000000     3.455000000    -2.334000000
H     5.321000000     2.912000000    -1.929000000
H     6.161000000     3.041000000    -3.182000000
O     3.508000000     5.235000000    -2.273000000
H     4.372000000     5.108000000    -1.880000000
H     3.310000000     6.160000000    -2.123000000
O     4.221000000     1.230000000    -1.043000000
H     4.899000000     0.565000000    -0.921000000
H     3.976000000     1.488000000    -0.155000000
O     0.834000000     5.415000000    -4.971000000
H     0.842000000     4.759000000    -4.274000000
H     1.621000000     5.937000000    -4.817000000
O    -3.568000000    -4.506000000     1.438000000
H    -3.898000000    -3.678000000     1.789000000
H    -3.827000000    -4.496000000     0.517000000
O     1.868000000     2.833000000     4.954000000
H     2.824000000     2.812000000     4.911000000
H     1.630000000     3.684000000     4.585000000
O    -0.952000000    -1.702000000     6.367000000
H    -1.901000000    -1.784000000     6.274000000
H    -0.693000000    -2.472000000     6.872000000
O    -2.692000000    -2.736000000    -5.170000000
H    -2.592000000    -3.688000000    -5.188000000
H    -2.036000000    -2.438000000    -4.540000000
O    -0.222000000     3.632000000     1.533000000
H     0.590000000     4.123000000     1.409000000
H    -0.422000000     3.279000000     0.666000000
O     4.222000000    -1.222000000     1.002000000
H     4.917000000    -1.435000000     0.380000000
H     4.684000000    -0.976000000     1.803000000
