158
-3030.65562
C    -0.746000000    -1.160000000     0.643000000
H    -1.318000000    -2.036000000     0.938000000
C     0.506000000    -1.206000000     0.007000000
H     0.993000000    -2.176000000    -0.055000000
C     1.133000000    -0.016000000    -0.421000000
H     2.085000000    -0.042000000    -0.996000000
C     0.523000000     1.225000000    -0.183000000
H     1.092000000     2.119000000    -0.429000000
C    -0.818000000     1.180000000     0.227000000
H    -1.286000000     2.159000000     0.156000000
C    -1.483000000     0.039000000     0.613000000
C    -2.929000000     0.091000000     0.921000000
O    -3.550000000    -0.958000000     1.051000000
O    -3.524000000     1.128000000     0.994000000
O    -5.479000000     1.597000000    -0.869000000
H    -6.160000000     0.970000000    -0.626000000
H    -4.769000000     1.432000000    -0.249000000
O     1.797000000     4.603000000    -3.015000000
H     1.867000000     3.662000000    -3.178000000
H     2.692000000     4.880000000    -2.819000000
O     1.304000000     0.034000000     2.491000000
H     0.648000000    -0.152000000     3.163000000
H     0.810000000     0.046000000     1.671000000
O     5.557000000    -0.985000000     3.401000000
H     6.120000000    -1.588000000     2.916000000
H     5.608000000    -1.287000000     4.308000000
O     2.483000000    -2.501000000     3.255000000
H     2.408000000    -2.328000000     4.193000000
H     1.855000000    -1.902000000     2.851000000
O    -6.155000000     2.241000000    -3.462000000
H    -5.951000000     1.895000000    -2.593000000
H    -5.438000000     2.845000000    -3.654000000
O    -0.767000000     5.046000000     2.453000000
H    -1.390000000     4.321000000     2.507000000
H     0.090000000     4.623000000     2.412000000
O    -5.063000000     4.553000000     1.404000000
H    -4.820000000     5.062000000     2.177000000
H    -4.235000000     4.400000000     0.948000000
O     0.927000000    -5.503000000     4.216000000
H     0.191000000    -4.895000000     4.282000000
H     1.194000000    -5.654000000     5.123000000
O    -5.570000000     2.070000000     2.777000000
H    -4.954000000     1.447000000     2.390000000
H    -5.335000000     2.912000000     2.388000000
O    -7.927000000     0.198000000    -0.251000000
H    -8.640000000     0.638000000    -0.713000000
H    -8.357000000    -0.494000000     0.250000000
O    -7.895000000     1.337000000     4.100000000
H    -7.056000000     1.427000000     3.648000000
H    -8.548000000     1.580000000     3.443000000
O    -4.873000000    -1.222000000     3.466000000
H    -5.691000000    -1.131000000     2.978000000
H    -4.199000000    -0.905000000     2.865000000
O     1.585000000    -0.715000000    -3.924000000
H     2.144000000    -0.895000000    -4.681000000
H     1.466000000    -1.568000000    -3.506000000
O    -4.507000000     6.434000000    -1.350000000
H    -3.863000000     5.732000000    -1.256000000
H    -4.303000000     7.043000000    -0.640000000
O    -0.541000000     4.324000000    -1.711000000
H     0.044000000     4.329000000    -2.469000000
H    -0.099000000     4.876000000    -1.065000000
O     2.319000000     2.002000000    -3.287000000
H     3.060000000     1.872000000    -2.695000000
H     2.015000000     1.117000000    -3.489000000
O     4.885000000     1.621000000     0.564000000
H     4.322000000     1.594000000     1.338000000
H     5.559000000     0.963000000     0.735000000
O     1.807000000     3.242000000     2.187000000
H     1.361000000     2.399000000     2.269000000
H     2.559000000     3.173000000     2.776000000
O     4.968000000     4.276000000     0.237000000
H     4.859000000     3.344000000     0.424000000
H     4.793000000     4.710000000     1.072000000
O     4.438000000     4.675000000    -2.473000000
H     4.564000000     4.744000000    -1.526000000
H     4.718000000     3.785000000    -2.687000000
O    -3.106000000     4.072000000    -0.960000000
H    -2.158000000     4.061000000    -1.090000000
H    -3.425000000     3.321000000    -1.462000000
O    -5.718000000    -4.998000000     0.873000000
H    -5.930000000    -4.067000000     0.817000000
H    -5.091000000    -5.144000000     0.164000000
O    -5.119000000    -2.930000000     5.676000000
H    -5.945000000    -2.509000000     5.436000000
H    -4.479000000    -2.568000000     5.063000000
O    -0.900000000    -4.082000000    -1.187000000
H    -1.725000000    -3.648000000    -1.406000000
H    -1.162000000    -4.942000000    -0.859000000
O    -1.589000000    -4.146000000     4.490000000
H    -1.380000000    -4.560000000     5.328000000
H    -2.527000000    -4.296000000     4.376000000
O     3.803000000     1.129000000     3.128000000
H     3.034000000     0.673000000     2.785000000
H     4.433000000     0.432000000     3.311000000
O    -0.617000000     3.065000000    -4.670000000
H    -0.230000000     2.438000000    -4.060000000
H    -1.515000000     2.758000000    -4.792000000
O     2.464000000    -6.462000000    -1.386000000
H     1.994000000    -5.901000000    -0.770000000
H     2.777000000    -5.863000000    -2.065000000
O     4.745000000     2.029000000    -1.895000000
H     5.636000000     1.970000000    -2.240000000
H     4.856000000     2.030000000    -0.944000000
O     2.268000000    -5.392000000     1.376000000
H     1.936000000    -5.164000000     2.244000000
H     2.840000000    -4.662000000     1.139000000
O     3.779000000     1.872000000    -6.087000000
H     3.877000000     2.820000000    -6.178000000
H     4.058000000     1.687000000    -5.190000000
O    -6.822000000     4.233000000    -0.770000000
H    -6.384000000     4.550000000     0.020000000
H    -6.497000000     3.340000000    -0.882000000
O     0.972000000    -3.205000000    -2.834000000
H     0.362000000    -3.381000000    -2.118000000
H     1.061000000    -4.045000000    -3.285000000
O    -4.331000000    -4.797000000    -1.554000000
H    -4.288000000    -4.996000000    -2.489000000
H    -3.907000000    -3.942000000    -1.471000000
O    -3.795000000     0.229000000     5.682000000
H    -2.843000000     0.142000000     5.735000000
H    -4.048000000    -0.349000000     4.962000000
O    -0.648000000     2.618000000     4.984000000
H    -1.182000000     2.655000000     4.190000000
H    -1.240000000     2.894000000     5.683000000
O    -0.900000000     0.228000000    -2.777000000
H    -0.707000000     0.258000000    -1.840000000
H    -0.054000000     0.052000000    -3.190000000
O    -3.708000000     0.088000000    -3.326000000
H    -2.754000000     0.037000000    -3.387000000
H    -3.939000000     0.868000000    -3.831000000
O     4.357000000    -3.720000000     1.673000000
H     3.775000000    -3.279000000     2.291000000
H     5.068000000    -3.096000000     1.526000000
O     1.907000000     5.025000000     0.025000000
H     1.849000000     4.654000000     0.905000000
H     2.676000000     4.608000000    -0.361000000
O     7.908000000     0.369000000    -0.956000000
H     8.252000000    -0.386000000    -0.479000000
H     7.319000000    -0.008000000    -1.609000000
O    -3.263000000    -2.369000000    -1.307000000
H    -3.156000000    -1.617000000    -1.891000000
H    -3.548000000    -1.988000000    -0.476000000
O    -0.656000000    -1.495000000     3.858000000
H    -0.713000000    -2.387000000     4.199000000
H    -1.111000000    -0.960000000     4.509000000
O    -2.541000000     2.951000000     2.684000000
H    -2.802000000     2.378000000     1.962000000
H    -3.252000000     2.875000000     3.319000000
O    -3.851000000     2.841000000     5.198000000
H    -3.743000000     2.839000000     6.149000000
H    -4.179000000     1.965000000     4.993000000
O    -6.276000000    -2.280000000     0.887000000
H    -7.006000000    -1.730000000     0.603000000
H    -5.495000000    -1.774000000     0.666000000
O     6.075000000    -0.949000000    -2.383000000
H     5.671000000    -1.625000000    -1.840000000
H     6.325000000    -1.404000000    -3.187000000
