158
-3027.06664
C    -1.308000000     0.478000000    -0.599000000
H    -2.230000000     0.642000000    -1.152000000
C    -1.138000000    -0.742000000     0.080000000
H    -2.019000000    -1.346000000     0.282000000
C     0.095000000    -1.027000000     0.642000000
H     0.254000000    -1.960000000     1.090000000
C     1.202000000    -0.136000000     0.530000000
H     2.169000000    -0.485000000     0.880000000
C     1.013000000     0.948000000    -0.287000000
H     1.863000000     1.625000000    -0.328000000
C    -0.218000000     1.317000000    -0.850000000
C    -0.331000000     2.552000000    -1.768000000
O    -1.464000000     2.883000000    -2.044000000
O     0.656000000     3.210000000    -2.076000000
O    -2.093000000     3.686000000     2.640000000
H    -2.235000000     3.732000000     1.694000000
H    -2.971000000     3.738000000     3.017000000
O     3.191000000    -0.291000000     6.358000000
H     2.703000000     0.481000000     6.073000000
H     2.542000000    -0.995000000     6.369000000
O    -2.706000000     4.885000000    -3.033000000
H    -2.299000000     4.079000000    -2.717000000
H    -2.014000000     5.324000000    -3.529000000
O    -2.759000000     3.234000000     0.134000000
H    -3.675000000     3.153000000    -0.132000000
H    -2.261000000     3.017000000    -0.654000000
O     2.332000000    -3.080000000     3.191000000
H     2.994000000    -2.527000000     2.777000000
H     2.826000000    -3.814000000     3.556000000
O     1.009000000     7.623000000    -0.963000000
H     0.890000000     8.215000000    -0.220000000
H     0.799000000     6.757000000    -0.615000000
O    -3.138000000     7.739000000    -2.234000000
H    -3.056000000     7.708000000    -1.281000000
H    -3.181000000     6.821000000    -2.501000000
O    -4.572000000    -2.571000000     0.904000000
H    -3.997000000    -2.301000000     1.621000000
H    -4.813000000    -3.472000000     1.117000000
O     3.693000000     3.182000000    -1.684000000
H     3.681000000     2.309000000    -1.290000000
H     2.811000000     3.298000000    -2.035000000
O    -6.563000000    -0.202000000     1.548000000
H    -5.637000000    -0.446000000     1.557000000
H    -6.963000000    -0.805000000     0.921000000
O    -0.058000000    -5.076000000     3.072000000
H     0.564000000    -4.349000000     3.112000000
H    -0.686000000    -4.817000000     2.397000000
O     1.122000000    -2.421000000     5.746000000
H     1.460000000    -2.624000000     4.873000000
H     1.438000000    -3.137000000     6.297000000
O     4.848000000    -1.433000000     2.914000000
H     4.974000000    -0.501000000     3.091000000
H     5.128000000    -1.870000000     3.718000000
O     0.093000000     4.893000000    -3.993000000
H     0.414000000     4.289000000    -3.323000000
H     0.503000000     5.730000000    -3.777000000
O     4.434000000     2.676000000    -5.430000000
H     4.963000000     3.377000000    -5.048000000
H     3.557000000     3.052000000    -5.504000000
O     2.323000000     4.265000000    -5.534000000
H     2.520000000     4.687000000    -6.370000000
H     1.526000000     4.698000000    -5.229000000
O    -1.384000000    -2.111000000     5.494000000
H    -1.590000000    -2.996000000     5.795000000
H    -0.433000000    -2.111000000     5.383000000
O     4.409000000     0.693000000    -0.745000000
H     5.323000000     0.592000000    -1.010000000
H     4.174000000    -0.155000000    -0.366000000
O     4.803000000    -1.941000000     0.184000000
H     4.571000000    -1.595000000     1.046000000
H     5.677000000    -1.591000000     0.012000000
O     3.121000000    -6.239000000     2.704000000
H     3.465000000    -7.051000000     2.330000000
H     2.303000000    -6.499000000     3.128000000
O     2.393000000     1.786000000     4.586000000
H     1.517000000     1.796000000     4.201000000
H     2.802000000     0.996000000     4.231000000
O     0.068000000     5.154000000     0.202000000
H     0.181000000     4.497000000    -0.485000000
H     0.350000000     4.714000000     1.003000000
O     1.630000000     4.239000000     2.543000000
H     2.433000000     4.098000000     3.044000000
H     1.207000000     3.380000000     2.523000000
O     1.108000000    -3.983000000    -0.890000000
H     1.032000000    -3.824000000     0.051000000
H     2.032000000    -4.195000000    -1.023000000
O     1.361000000     1.855000000    -4.047000000
H     1.584000000     2.503000000    -4.715000000
H     1.236000000     2.368000000    -3.249000000
O    -3.512000000    -1.318000000    -3.018000000
H    -3.219000000    -2.227000000    -3.076000000
H    -2.709000000    -0.802000000    -3.093000000
O     3.652000000    -4.425000000    -0.165000000
H     4.184000000    -5.078000000     0.290000000
H     4.241000000    -3.680000000    -0.288000000
O     1.346000000    -6.660000000     5.032000000
H     0.788000000    -5.972000000     4.669000000
H     0.759000000    -7.180000000     5.581000000
O     2.193000000    -3.068000000    -3.794000000
H     1.956000000    -2.926000000    -4.711000000
H     1.565000000    -2.542000000    -3.300000000
O    -2.306000000     6.789000000     0.274000000
H    -1.799000000     7.244000000     0.946000000
H    -1.709000000     6.123000000    -0.067000000
O     4.869000000     0.594000000    -3.941000000
H     4.490000000     1.082000000    -3.210000000
H     4.994000000     1.250000000    -4.628000000
O    -5.202000000     5.296000000    -2.434000000
H    -4.294000000     5.176000000    -2.711000000
H    -5.653000000     4.510000000    -2.743000000
O     3.506000000     6.829000000    -2.300000000
H     2.919000000     7.036000000    -1.573000000
H     4.257000000     6.403000000    -1.888000000
O    -6.557000000     0.141000000    -3.879000000
H    -5.604000000     0.136000000    -3.792000000
H    -6.789000000    -0.776000000    -4.027000000
O    -1.818000000    -4.321000000     1.150000000
H    -1.656000000    -4.444000000     0.215000000
H    -2.772000000    -4.331000000     1.231000000
O    -3.732000000     2.357000000    -3.822000000
H    -2.785000000     2.470000000    -3.734000000
H    -4.027000000     2.117000000    -2.944000000
O     5.064000000     3.894000000     1.666000000
H     4.740000000     3.565000000     0.827000000
H     4.938000000     4.842000000     1.616000000
O    -0.350000000    -0.050000000    -4.516000000
H     0.402000000     0.525000000    -4.380000000
H    -0.253000000    -0.733000000    -3.852000000
O     4.929000000     1.157000000     3.043000000
H     4.720000000     2.038000000     2.735000000
H     5.832000000     1.220000000     3.353000000
O    -3.038000000     0.663000000     2.323000000
H    -3.551000000     1.469000000     2.275000000
H    -2.143000000     0.936000000     2.123000000
O    -4.854000000    -0.590000000    -0.829000000
H    -4.891000000    -1.329000000    -0.222000000
H    -4.210000000    -0.851000000    -1.487000000
O    -0.085000000     1.997000000     3.313000000
H    -0.539000000     1.814000000     4.135000000
H    -0.641000000     2.637000000     2.868000000
O     0.320000000    -1.724000000    -2.408000000
H     0.700000000    -2.440000000    -1.899000000
H     0.108000000    -1.055000000    -1.757000000
O     0.616000000     7.544000000    -3.456000000
H     0.778000000     7.579000000    -2.513000000
H     1.190000000     8.217000000    -3.822000000
O    -3.212000000    -4.724000000    -1.157000000
H    -3.089000000    -4.421000000    -2.057000000
H    -3.261000000    -5.677000000    -1.231000000
O    -3.707000000    -1.510000000     3.712000000
H    -3.504000000    -0.869000000     3.031000000
H    -2.911000000    -1.558000000     4.241000000
O    -3.094000000    -5.651000000     3.678000000
H    -2.438000000    -5.028000000     3.992000000
H    -2.607000000    -6.465000000     3.546000000
O    -5.048000000     1.963000000    -1.450000000
H    -5.974000000     2.202000000    -1.494000000
H    -5.042000000     1.101000000    -1.035000000
