158
-3011.55911
C    -0.725000000     1.208000000    -0.410000000
H    -1.280000000     2.113000000    -0.644000000
C    -1.339000000     0.098000000     0.065000000
H    -2.424000000     0.144000000     0.116000000
C    -0.576000000    -1.024000000     0.334000000
H    -1.042000000    -1.959000000     0.694000000
C     0.845000000    -0.969000000     0.330000000
H     1.486000000    -1.804000000     0.600000000
C     1.499000000     0.246000000    -0.058000000
H     2.585000000     0.262000000    -0.059000000
C     0.701000000     1.313000000    -0.397000000
C     1.319000000     2.622000000    -0.869000000
O     0.588000000     3.524000000    -1.258000000
O     2.511000000     2.742000000    -0.740000000
O     0.382000000     0.361000000     3.045000000
H     0.030000000     0.009000000     2.227000000
H    -0.120000000     1.161000000     3.197000000
O    -0.335000000    -0.808000000     5.354000000
H    -0.176000000    -0.197000000     4.634000000
H    -0.551000000    -1.635000000     4.923000000
O     1.276000000     5.832000000    -0.272000000
H     1.029000000     5.070000000    -0.798000000
H     1.885000000     5.486000000     0.380000000
O    -2.265000000     2.229000000     2.892000000
H    -2.476000000     3.111000000     3.200000000
H    -2.464000000     2.250000000     1.955000000
O     0.442000000    -3.547000000     2.583000000
H     0.238000000    -3.867000000     1.703000000
H    -0.385000000    -3.186000000     2.903000000
O    -3.177000000     1.160000000    -3.181000000
H    -2.271000000     1.239000000    -2.881000000
H    -3.246000000     0.259000000    -3.498000000
O     1.270000000     6.127000000    -4.802000000
H     0.952000000     5.634000000    -5.557000000
H     1.560000000     5.458000000    -4.183000000
O    -3.778000000    -6.518000000     1.590000000
H    -3.506000000    -5.831000000     0.981000000
H    -4.108000000    -7.219000000     1.028000000
O     2.906000000     3.880000000    -3.566000000
H     2.710000000     3.054000000    -4.009000000
H     2.810000000     3.681000000    -2.635000000
O    -2.450000000     3.606000000    -4.076000000
H    -2.519000000     4.038000000    -3.224000000
H    -3.125000000     2.928000000    -4.056000000
O    -2.978000000    -4.584000000    -0.121000000
H    -3.711000000    -4.032000000     0.154000000
H    -2.668000000    -4.183000000    -0.934000000
O     2.251000000     0.775000000    -4.582000000
H     1.967000000    -0.124000000    -4.743000000
H     1.442000000     1.252000000    -4.394000000
O     0.135000000     2.170000000    -3.983000000
H    -0.609000000     2.653000000    -4.344000000
H     0.282000000     2.565000000    -3.124000000
O     3.935000000    -3.860000000    -2.984000000
H     3.358000000    -4.195000000    -3.671000000
H     3.381000000    -3.823000000    -2.204000000
O     4.724000000     5.949000000    -3.501000000
H     4.466000000     6.499000000    -2.760000000
H     4.120000000     5.207000000    -3.469000000
O     3.023000000    -5.762000000     1.575000000
H     2.409000000    -6.072000000     2.241000000
H     3.840000000    -5.615000000     2.052000000
O     4.994000000     1.293000000    -1.378000000
H     5.353000000     1.901000000    -2.024000000
H     4.133000000     1.652000000    -1.163000000
O    -6.876000000    -0.568000000     2.523000000
H    -7.355000000    -1.299000000     2.132000000
H    -6.313000000    -0.245000000     1.819000000
O     3.058000000    -2.783000000     3.270000000
H     3.321000000    -3.649000000     3.580000000
H     2.110000000    -2.847000000     3.155000000
O     5.985000000     3.291000000    -2.971000000
H     5.888000000     3.536000000    -3.891000000
H     6.006000000     4.125000000    -2.501000000
O    -1.699000000    -2.809000000     3.935000000
H    -2.023000000    -1.919000000     3.795000000
H    -2.471000000    -3.365000000     3.829000000
O    -1.591000000     6.327000000    -4.679000000
H    -0.652000000     6.178000000    -4.566000000
H    -1.975000000     5.450000000    -4.681000000
O    -4.119000000    -1.631000000    -3.302000000
H    -4.755000000    -2.160000000    -3.783000000
H    -4.625000000    -1.231000000    -2.596000000
O     1.897000000     3.404000000     2.029000000
H     1.121000000     2.847000000     1.971000000
H     2.342000000     3.282000000     1.190000000
O    -3.763000000    -4.499000000     3.704000000
H    -4.118000000    -5.108000000     3.057000000
H    -4.448000000    -4.427000000     4.368000000
O    -0.100000000    -5.366000000     0.096000000
H    -1.005000000    -5.118000000    -0.093000000
H    -0.081000000    -6.315000000    -0.028000000
O     0.619000000    -5.793000000    -2.953000000
H    -0.325000000    -5.951000000    -2.920000000
H     1.004000000    -6.554000000    -2.518000000
O    -5.653000000     0.405000000    -2.305000000
H    -6.260000000     1.138000000    -2.194000000
H    -4.901000000     0.784000000    -2.760000000
O    -2.154000000    -3.304000000    -2.513000000
H    -1.650000000    -3.185000000    -3.318000000
H    -2.898000000    -2.709000000    -2.606000000
O     5.101000000    -2.435000000     1.479000000
H     5.355000000    -1.522000000     1.613000000
H     4.676000000    -2.688000000     2.298000000
O     5.377000000     2.712000000     2.951000000
H     5.347000000     3.522000000     3.461000000
H     4.540000000     2.690000000     2.487000000
O     0.547000000    -2.421000000    -2.540000000
H     0.993000000    -3.130000000    -2.077000000
H    -0.273000000    -2.301000000    -2.061000000
O     1.386000000    -5.317000000     4.134000000
H     1.062000000    -4.597000000     3.593000000
H     0.641000000    -5.913000000     4.213000000
O     3.945000000     5.019000000    -0.534000000
H     4.854000000     4.755000000    -0.387000000
H     3.485000000     4.200000000    -0.717000000
O     6.300000000    -0.517000000    -3.449000000
H     5.982000000    -1.134000000    -4.109000000
H     5.641000000    -0.548000000    -2.756000000
O    -5.599000000     0.489000000     0.506000000
H    -5.440000000     1.428000000     0.412000000
H    -5.579000000     0.152000000    -0.389000000
O    -5.535000000     3.129000000    -0.035000000
H    -5.646000000     4.077000000     0.035000000
H    -6.083000000     2.878000000    -0.779000000
O     2.750000000    -0.060000000     4.076000000
H     2.925000000    -0.878000000     3.610000000
H     1.972000000     0.298000000     3.647000000
O     0.277000000     3.982000000    -6.108000000
H     0.379000000     3.126000000    -5.691000000
H     0.257000000     3.790000000    -7.046000000
O     6.112000000     0.650000000     1.142000000
H     5.618000000     0.744000000     0.327000000
H     5.846000000     1.403000000     1.671000000
O    -2.836000000    -0.249000000     3.666000000
H    -3.305000000    -0.075000000     4.482000000
H    -2.746000000     0.611000000     3.255000000
O     3.351000000     7.613000000    -1.322000000
H     4.065000000     7.609000000    -0.684000000
H     2.795000000     6.878000000    -1.064000000
O    -5.251000000    -2.697000000     0.426000000
H    -5.968000000    -2.911000000     1.024000000
H    -4.937000000    -1.844000000     0.726000000
O     2.386000000    -4.228000000    -0.770000000
H     2.777000000    -4.542000000     0.045000000
H     1.470000000    -4.503000000    -0.718000000
O     2.001000000    -1.991000000    -4.806000000
H     1.678000000    -1.946000000    -3.906000000
H     2.004000000    -2.926000000    -5.012000000
O    -1.094000000    -6.565000000     3.022000000
H    -0.656000000    -7.249000000     2.516000000
H    -1.895000000    -6.380000000     2.532000000
O    -2.793000000     5.288000000    -1.745000000
H    -3.062000000     5.052000000    -0.857000000
H    -3.146000000     6.168000000    -1.877000000
O    -0.974000000     7.598000000    -0.078000000
H    -0.342000000     6.907000000    -0.277000000
H    -1.820000000     7.149000000    -0.057000000
