158
-3000.74346
C     0.255000000     1.366000000    -0.414000000
H     0.358000000     2.359000000    -0.842000000
C    -1.007000000     0.799000000    -0.323000000
H    -1.891000000     1.421000000    -0.436000000
C    -1.092000000    -0.505000000     0.182000000
H    -2.043000000    -0.908000000     0.331000000
C    -0.020000000    -1.291000000     0.460000000
H    -0.058000000    -2.337000000     0.756000000
C     1.259000000    -0.751000000     0.178000000
H     2.134000000    -1.326000000     0.469000000
C     1.426000000     0.589000000    -0.186000000
C     2.794000000     1.252000000    -0.324000000
O     2.828000000     2.482000000    -0.562000000
O     3.854000000     0.658000000    -0.269000000
O    -4.390000000     0.088000000     5.096000000
H    -5.078000000     0.748000000     5.012000000
H    -3.942000000     0.101000000     4.250000000
O    -5.902000000    -4.398000000     0.293000000
H    -5.913000000    -4.855000000    -0.548000000
H    -6.826000000    -4.259000000     0.502000000
O    -1.005000000     3.163000000    -2.984000000
H    -1.948000000     3.305000000    -2.897000000
H    -0.926000000     2.507000000    -3.678000000
O    -1.836000000     3.725000000     1.016000000
H    -1.392000000     3.749000000     1.864000000
H    -1.716000000     2.828000000     0.707000000
O    -0.819000000     5.619000000    -4.884000000
H    -0.401000000     6.322000000    -4.386000000
H    -0.731000000     4.846000000    -4.326000000
O    -2.145000000    -6.329000000     0.480000000
H    -3.062000000    -6.489000000     0.256000000
H    -1.706000000    -6.234000000    -0.365000000
O    -4.277000000     4.091000000    -2.960000000
H    -4.100000000     4.547000000    -2.137000000
H    -4.281000000     3.164000000    -2.723000000
O     2.917000000     5.741000000    -4.109000000
H     3.783000000     5.870000000    -3.722000000
H     2.618000000     4.905000000    -3.751000000
O     6.486000000     5.077000000     1.458000000
H     5.782000000     4.871000000     0.843000000
H     7.290000000     4.937000000     0.957000000
O    -1.397000000    -4.215000000     4.329000000
H    -2.234000000    -3.774000000     4.185000000
H    -1.614000000    -4.967000000     4.880000000
O     1.280000000     6.767000000     1.033000000
H     0.388000000     6.566000000     1.317000000
H     1.383000000     6.291000000     0.209000000
O     4.881000000     4.129000000    -0.676000000
H     4.914000000     4.528000000    -1.545000000
H     4.177000000     3.483000000    -0.735000000
O     2.664000000     3.242000000    -3.230000000
H     2.152000000     2.615000000    -3.740000000
H     2.654000000     2.891000000    -2.339000000
O    -5.899000000    -0.398000000    -3.242000000
H    -6.315000000    -0.133000000    -4.062000000
H    -6.491000000    -1.055000000    -2.874000000
O     1.101000000     0.751000000    -4.343000000
H     0.739000000     0.055000000    -3.795000000
H     0.349000000     1.086000000    -4.832000000
O    -1.914000000     1.177000000    -4.563000000
H    -2.022000000     0.488000000    -5.218000000
H    -2.729000000     1.162000000    -4.062000000
O     2.490000000    -5.913000000     0.896000000
H     1.695000000    -5.590000000     1.321000000
H     3.187000000    -5.738000000     1.528000000
O    -5.700000000    -5.280000000    -2.277000000
H    -5.182000000    -4.726000000    -2.861000000
H    -6.142000000    -5.896000000    -2.861000000
O    -5.167000000    -0.757000000     0.592000000
H    -4.725000000    -1.526000000     0.232000000
H    -6.042000000    -1.069000000     0.822000000
O    -2.522000000    -0.782000000     2.717000000
H    -3.043000000    -1.540000000     2.451000000
H    -2.534000000    -0.204000000     1.954000000
O     0.944000000    -2.861000000     4.458000000
H     0.805000000    -3.466000000     5.187000000
H     0.271000000    -3.097000000     3.819000000
O     7.972000000     1.224000000    -2.621000000
H     8.475000000     0.412000000    -2.574000000
H     7.357000000     1.168000000    -1.890000000
O    -3.729000000    -2.747000000    -0.015000000
H    -2.925000000    -3.083000000    -0.412000000
H    -4.357000000    -3.464000000    -0.104000000
O     5.283000000    -1.137000000     2.933000000
H     4.898000000    -1.754000000     3.555000000
H     4.819000000    -1.303000000     2.112000000
O    -3.000000000    -1.515000000    -3.169000000
H    -2.858000000    -1.593000000    -4.112000000
H    -3.933000000    -1.318000000    -3.082000000
O     6.332000000     1.790000000    -0.364000000
H     5.447000000     1.434000000    -0.280000000
H     6.202000000     2.731000000    -0.483000000
O    -4.795000000    -3.029000000     5.570000000
H    -4.101000000    -2.527000000     5.143000000
H    -4.534000000    -3.943000000     5.458000000
O     3.471000000     2.992000000     2.557000000
H     3.631000000     3.902000000     2.308000000
H     3.220000000     2.560000000     1.740000000
O     4.713000000    -5.120000000     2.502000000
H     5.373000000    -5.012000000     3.187000000
H     4.716000000    -4.286000000     2.033000000
O    -1.639000000    -3.802000000    -1.592000000
H    -1.120000000    -3.249000000    -2.175000000
H    -1.578000000    -4.677000000    -1.975000000
O     4.247000000    -2.828000000     0.892000000
H     5.140000000    -2.902000000     0.557000000
H     3.727000000    -2.563000000     0.133000000
O    -0.744000000     3.818000000     3.399000000
H    -0.517000000     3.088000000     3.975000000
H    -0.079000000     4.482000000     3.581000000
O     4.822000000    -2.479000000    -2.924000000
H     4.030000000    -2.770000000    -2.472000000
H     4.756000000    -1.525000000    -2.933000000
O    -0.327000000    -1.107000000    -2.828000000
H    -1.278000000    -1.116000000    -2.936000000
H    -0.193000000    -0.908000000    -1.902000000
O     0.124000000    -5.361000000     1.973000000
H    -0.338000000    -5.629000000     2.767000000
H    -0.433000000    -5.667000000     1.257000000
O     5.382000000     1.549000000     3.797000000
H     5.360000000     0.597000000     3.700000000
H     4.605000000     1.856000000     3.330000000
O     1.954000000     4.991000000    -1.056000000
H     1.708000000     4.903000000    -1.977000000
H     2.197000000     4.105000000    -0.787000000
O     4.882000000     0.145000000    -2.582000000
H     4.753000000     1.020000000    -2.948000000
H     4.485000000     0.187000000    -1.713000000
O    -3.778000000     3.418000000     3.004000000
H    -3.008000000     3.764000000     2.552000000
H    -4.126000000     2.754000000     2.410000000
O    -0.210000000    -0.085000000     4.070000000
H    -0.907000000    -0.454000000     3.527000000
H     0.386000000    -0.817000000     4.225000000
O    -3.672000000    -3.199000000     2.931000000
H    -4.539000000    -3.549000000     3.135000000
H    -3.580000000    -3.322000000     1.986000000
O    -4.842000000     1.730000000     1.573000000
H    -4.749000000     0.793000000     1.403000000
H    -5.703000000     1.953000000     1.218000000
O     2.839000000    -4.004000000    -1.539000000
H     3.126000000    -4.738000000    -0.995000000
H     1.912000000    -3.898000000    -1.328000000
O     3.844000000     7.030000000    -1.336000000
H     4.466000000     7.124000000    -0.615000000
H     3.155000000     6.466000000    -0.985000000
O    -4.083000000     4.920000000    -0.282000000
H    -3.185000000     4.619000000    -0.143000000
H    -4.086000000     5.821000000     0.041000000
O    -4.562000000     1.575000000    -1.970000000
H    -4.868000000     1.519000000    -1.064000000
H    -4.788000000     0.727000000    -2.352000000
O     8.335000000    -0.865000000     0.637000000
H     7.718000000    -0.149000000     0.485000000
H     8.306000000    -1.010000000     1.582000000
O    -1.590000000     6.441000000     1.167000000
H    -1.512000000     6.887000000     0.323000000
H    -1.585000000     5.509000000     0.947000000
