158
-3053.58756
C     0.646000000     1.330000000     0.069000000
H     0.977000000     2.365000000     0.102000000
C    -0.334000000     0.946000000    -0.826000000
H    -0.694000000     1.686000000    -1.535000000
C    -0.850000000    -0.388000000    -0.837000000
H    -1.533000000    -0.696000000    -1.543000000
C    -0.292000000    -1.345000000     0.051000000
H    -0.677000000    -2.361000000     0.028000000
C     0.660000000    -0.907000000     0.980000000
H     1.047000000    -1.574000000     1.746000000
C     1.171000000     0.412000000     0.989000000
C     2.121000000     0.803000000     2.128000000
O     2.577000000     1.948000000     2.183000000
O     2.429000000     0.029000000     2.983000000
O    -6.307000000    -0.869000000     1.646000000
H    -5.585000000    -1.456000000     1.871000000
H    -6.597000000    -0.514000000     2.486000000
O     0.379000000    -3.536000000    -2.064000000
H     0.814000000    -4.225000000    -1.562000000
H     1.051000000    -2.865000000    -2.183000000
O     2.882000000     2.981000000    -2.274000000
H     1.967000000     2.865000000    -2.530000000
H     3.204000000     3.678000000    -2.847000000
O    -2.537000000    -3.615000000    -1.241000000
H    -1.691000000    -3.343000000    -1.598000000
H    -3.099000000    -3.717000000    -2.009000000
O     1.376000000     5.887000000    -0.415000000
H     1.092000000     5.076000000    -0.836000000
H     2.331000000     5.866000000    -0.473000000
O     0.172000000    -3.433000000     5.739000000
H    -0.761000000    -3.365000000     5.537000000
H     0.609000000    -3.310000000     4.897000000
O     4.360000000     5.133000000     2.336000000
H     3.501000000     4.728000000     2.452000000
H     4.370000000     5.418000000     1.423000000
O    -0.522000000    -0.070000000    -7.170000000
H     0.108000000    -0.426000000    -6.543000000
H    -1.365000000    -0.430000000    -6.894000000
O    -0.181000000     2.301000000    -5.122000000
H     0.277000000     2.920000000    -5.691000000
H    -0.094000000     1.458000000    -5.567000000
O     4.292000000     2.716000000     0.122000000
H     3.947000000     2.720000000    -0.771000000
H     3.548000000     2.456000000     0.665000000
O     0.308000000     3.588000000    -2.694000000
H    -0.511000000     4.042000000    -2.494000000
H     0.165000000     3.209000000    -3.561000000
O     6.184000000    -2.081000000     5.827000000
H     7.111000000    -2.259000000     5.667000000
H     5.789000000    -2.068000000     4.956000000
O    -6.732000000    -3.843000000    -1.941000000
H    -6.164000000    -3.078000000    -1.852000000
H    -6.603000000    -4.135000000    -2.843000000
O     3.899000000    -0.511000000     5.088000000
H     3.387000000    -0.252000000     4.321000000
H     4.060000000     0.308000000     5.556000000
O    -0.686000000    -3.592000000     3.006000000
H    -1.077000000    -4.407000000     2.688000000
H     0.252000000    -3.702000000     2.852000000
O    -1.999000000     3.709000000     2.173000000
H    -2.359000000     4.576000000     2.361000000
H    -1.256000000     3.624000000     2.770000000
O     1.134000000    -0.766000000    -5.045000000
H     1.607000000    -1.596000000    -4.985000000
H     1.821000000    -0.102000000    -5.097000000
O     4.356000000     2.346000000     6.064000000
H     4.639000000     2.359000000     5.149000000
H     3.727000000     3.064000000     6.130000000
O    -1.240000000    -6.365000000    -0.671000000
H    -1.220000000    -6.276000000    -1.624000000
H    -0.445000000    -5.923000000    -0.373000000
O    -2.532000000     3.908000000    -4.205000000
H    -3.098000000     3.784000000    -3.444000000
H    -2.211000000     3.030000000    -4.411000000
O     0.479000000     0.527000000     4.790000000
H     1.242000000     0.557000000     4.212000000
H     0.819000000     0.188000000     5.618000000
O    -5.376000000     0.337000000    -0.848000000
H    -5.654000000    -0.175000000    -0.089000000
H    -4.909000000     1.085000000    -0.474000000
O     2.837000000    -3.609000000     0.018000000
H     3.231000000    -3.173000000     0.774000000
H     2.472000000    -2.897000000    -0.507000000
O    -4.024000000    -6.182000000    -0.242000000
H    -3.131000000    -6.453000000    -0.457000000
H    -4.033000000    -5.239000000    -0.407000000
O     7.379000000     2.685000000     0.013000000
H     6.464000000     2.916000000     0.173000000
H     7.875000000     3.446000000     0.316000000
O     1.336000000    -1.178000000     7.039000000
H     1.066000000    -1.949000000     6.540000000
H     2.281000000    -1.284000000     7.152000000
O    -3.388000000     3.444000000    -1.705000000
H    -4.316000000     3.670000000    -1.645000000
H    -3.246000000     2.825000000    -0.990000000
O    -2.951000000     1.808000000     0.464000000
H    -2.659000000     2.415000000     1.144000000
H    -2.224000000     1.194000000     0.363000000
O     2.548000000    -1.359000000    -1.584000000
H     1.822000000    -0.735000000    -1.576000000
H     3.290000000    -0.867000000    -1.233000000
O    -1.578000000    -4.075000000    -4.918000000
H    -0.638000000    -4.084000000    -5.099000000
H    -1.840000000    -3.165000000    -5.058000000
O     4.881000000     2.495000000     3.297000000
H     5.078000000     3.340000000     2.892000000
H     4.116000000     2.174000000     2.820000000
O     1.761000000     4.207000000     3.060000000
H     0.977000000     4.130000000     3.603000000
H     1.927000000     3.316000000     2.751000000
O    -4.639000000    -1.965000000    -2.388000000
H    -4.768000000    -1.108000000    -1.981000000
H    -5.007000000    -1.871000000    -3.266000000
O    -0.272000000     3.215000000     4.547000000
H    -0.750000000     3.619000000     5.272000000
H    -0.244000000     2.284000000     4.768000000
O    -1.606000000    -0.993000000     3.598000000
H    -0.829000000    -0.470000000     3.800000000
H    -1.310000000    -1.900000000     3.673000000
O    -7.682000000     1.418000000    -2.052000000
H    -6.981000000     0.982000000    -1.567000000
H    -7.228000000     2.049000000    -2.612000000
O    -3.949000000    -4.396000000     3.038000000
H    -4.815000000    -4.293000000     3.432000000
H    -3.862000000    -3.644000000     2.451000000
O    -2.863000000    -1.443000000    -6.499000000
H    -3.395000000    -0.762000000    -6.088000000
H    -3.382000000    -1.731000000    -7.250000000
O     4.108000000    -2.159000000     1.958000000
H     5.046000000    -2.198000000     2.144000000
H     3.801000000    -1.387000000     2.434000000
O    -4.884000000     1.528000000    -4.794000000
H    -5.550000000     2.216000000    -4.813000000
H    -5.292000000     0.813000000    -4.305000000
O    -1.619000000    -5.831000000     1.872000000
H    -2.256000000    -5.119000000     1.915000000
H    -1.437000000    -5.935000000     0.938000000
O     2.769000000     4.415000000     5.740000000
H     2.050000000     4.894000000     6.151000000
H     2.590000000     4.471000000     4.802000000
O     2.125000000    -3.976000000     3.384000000
H     2.900000000    -3.462000000     3.159000000
H     2.438000000    -4.880000000     3.415000000
O     1.112000000    -5.461000000     0.266000000
H     1.820000000    -4.817000000     0.302000000
H     1.439000000    -6.205000000     0.770000000
O    -1.533000000     5.558000000    -1.598000000
H    -2.107000000     4.792000000    -1.599000000
H    -2.065000000     6.255000000    -1.214000000
O     7.626000000     1.321000000     3.574000000
H     6.862000000     1.662000000     3.109000000
H     8.355000000     1.457000000     2.970000000
O    -3.432000000    -2.196000000     1.054000000
H    -2.891000000    -1.410000000     1.117000000
H    -3.133000000    -2.629000000     0.255000000
O     5.145000000    -0.131000000    -0.873000000
H     6.043000000    -0.459000000    -0.915000000
H     5.182000000     0.588000000    -0.242000000
