158
-3032.54180
C    -0.801000000     0.965000000    -0.770000000
H    -1.487000000     1.544000000    -1.383000000
C    -1.289000000    -0.054000000     0.114000000
H    -2.335000000    -0.347000000     0.149000000
C    -0.347000000    -0.894000000     0.804000000
H    -0.711000000    -1.760000000     1.334000000
C     0.964000000    -0.591000000     0.688000000
H     1.698000000    -1.103000000     1.304000000
C     1.429000000     0.412000000    -0.104000000
H     2.492000000     0.637000000    -0.074000000
C     0.574000000     1.126000000    -0.975000000
C     1.031000000     2.059000000    -2.020000000
O     0.217000000     2.545000000    -2.853000000
O     2.167000000     2.538000000    -2.089000000
O    -4.673000000     0.587000000     3.845000000
H    -3.731000000     0.513000000     3.695000000
H    -4.929000000    -0.269000000     4.188000000
O    -6.722000000    -3.733000000     2.872000000
H    -6.812000000    -4.316000000     2.118000000
H    -5.913000000    -3.249000000     2.705000000
O     1.235000000     5.470000000    -2.845000000
H     1.015000000     4.542000000    -2.919000000
H     1.593000000     5.562000000    -1.962000000
O    -4.522000000     3.980000000     0.603000000
H    -3.642000000     3.734000000     0.886000000
H    -4.946000000     3.149000000     0.391000000
O    -2.203000000    -3.704000000     0.947000000
H    -2.992000000    -3.241000000     1.226000000
H    -2.528000000    -4.438000000     0.426000000
O     2.010000000     4.369000000    -6.968000000
H     1.126000000     4.222000000    -6.632000000
H     2.586000000     4.112000000    -6.248000000
O     5.261000000     5.121000000     0.798000000
H     5.751000000     5.360000000     0.011000000
H     4.727000000     4.373000000     0.530000000
O    -1.357000000    -3.929000000     4.475000000
H    -1.785000000    -4.599000000     3.942000000
H    -1.356000000    -4.292000000     5.360000000
O    -3.069000000    -5.558000000     2.995000000
H    -3.698000000    -4.933000000     3.356000000
H    -3.404000000    -5.757000000     2.120000000
O     2.958000000     3.437000000    -4.448000000
H     3.852000000     3.740000000    -4.287000000
H     2.613000000     3.239000000    -3.577000000
O    -1.573000000     0.994000000    -4.024000000
H    -1.012000000     1.638000000    -3.593000000
H    -1.944000000     1.461000000    -4.773000000
O    -4.960000000     1.839000000    -3.441000000
H    -5.484000000     1.928000000    -4.237000000
H    -5.040000000     0.916000000    -3.203000000
O    -0.140000000     3.292000000    -5.387000000
H     0.188000000     2.935000000    -4.561000000
H    -1.034000000     3.571000000    -5.190000000
O    -2.752000000     3.860000000    -4.527000000
H    -3.328000000     3.216000000    -4.939000000
H    -3.247000000     4.175000000    -3.771000000
O    -1.090000000    -1.654000000     7.474000000
H    -1.587000000    -0.881000000     7.208000000
H    -1.285000000    -2.308000000     6.803000000
O     2.447000000    -3.883000000     0.638000000
H     1.640000000    -3.887000000     1.153000000
H     2.862000000    -4.722000000     0.836000000
O     7.000000000     2.508000000     0.499000000
H     6.302000000     2.682000000    -0.133000000
H     6.725000000     1.705000000     0.943000000
O    -1.800000000     0.433000000     3.339000000
H    -1.546000000     0.584000000     2.429000000
H    -1.387000000    -0.400000000     3.568000000
O    -0.050000000    -1.619000000     3.810000000
H     0.830000000    -1.961000000     3.966000000
H    -0.625000000    -2.375000000     3.927000000
O    -5.113000000    -1.354000000    -0.309000000
H    -4.731000000    -1.739000000    -1.098000000
H    -6.045000000    -1.565000000    -0.367000000
O     4.966000000     0.755000000     1.267000000
H     4.434000000     0.853000000     2.057000000
H     4.925000000    -0.179000000     1.064000000
O    -2.913000000    -1.275000000    -3.953000000
H    -2.378000000    -0.481000000    -3.976000000
H    -3.793000000    -0.977000000    -4.182000000
O     3.921000000     3.028000000    -0.117000000
H     3.321000000     2.804000000    -0.828000000
H     4.110000000     2.193000000     0.309000000
O    -0.813000000     2.682000000     5.153000000
H    -0.069000000     2.828000000     5.737000000
H    -0.821000000     1.736000000     5.007000000
O     2.111000000     1.371000000    -7.195000000
H     1.645000000     0.646000000    -6.779000000
H     1.855000000     2.142000000    -6.688000000
O    -1.969000000    -4.951000000    -2.282000000
H    -2.403000000    -5.546000000    -2.894000000
H    -1.420000000    -5.521000000    -1.744000000
O     0.708000000     4.620000000     2.051000000
H     0.441000000     5.464000000     2.416000000
H    -0.101000000     4.111000000     2.006000000
O    -3.804000000    -2.998000000    -2.196000000
H    -3.307000000    -2.330000000    -2.667000000
H    -3.258000000    -3.783000000    -2.247000000
O     4.363000000    -1.880000000     1.045000000
H     4.678000000    -2.175000000     1.899000000
H     3.573000000    -2.397000000     0.889000000
O    -1.934000000     3.372000000     2.426000000
H    -1.720000000     2.653000000     3.020000000
H    -2.241000000     4.074000000     3.000000000
O     4.640000000    -1.529000000    -2.303000000
H     3.797000000    -1.920000000    -2.070000000
H     4.438000000    -0.939000000    -3.029000000
O     3.646000000     0.949000000     3.619000000
H     3.684000000     0.739000000     4.553000000
H     2.718000000     1.108000000     3.448000000
O    -0.420000000    -2.201000000    -2.272000000
H    -1.193000000    -2.764000000    -2.302000000
H    -0.721000000    -1.404000000    -1.836000000
O     0.176000000    -4.181000000     2.133000000
H    -0.141000000    -4.124000000     3.035000000
H    -0.618000000    -4.153000000     1.598000000
O     1.904000000     5.322000000    -0.150000000
H     1.411000000     4.994000000     0.603000000
H     2.619000000     4.696000000    -0.259000000
O     4.116000000     0.768000000    -3.950000000
H     4.523000000     1.332000000    -4.607000000
H     3.357000000     1.266000000    -3.644000000
O     0.715000000     0.219000000     5.898000000
H     0.553000000    -0.215000000     5.060000000
H     0.236000000    -0.308000000     6.537000000
O     3.605000000     6.204000000    -3.772000000
H     2.767000000     5.778000000    -3.596000000
H     3.642000000     6.276000000    -4.726000000
O    -4.367000000    -2.315000000     2.073000000
H    -3.656000000    -1.840000000     2.504000000
H    -4.560000000    -1.799000000     1.290000000
O     2.566000000    -2.192000000     4.181000000
H     2.745000000    -1.895000000     5.073000000
H     3.426000000    -2.220000000     3.761000000
O    -5.285000000     1.475000000    -0.347000000
H    -4.899000000     0.600000000    -0.303000000
H    -6.169000000     1.331000000    -0.684000000
O     2.290000000    -2.700000000    -1.897000000
H     2.340000000    -3.195000000    -1.079000000
H     1.377000000    -2.418000000    -1.952000000
O     5.305000000    -2.512000000     3.566000000
H     5.796000000    -3.080000000     4.160000000
H     5.800000000    -1.693000000     3.555000000
O     0.732000000    -0.196000000    -5.013000000
H     0.974000000    -1.108000000    -4.852000000
H     0.059000000    -0.008000000    -4.359000000
O    -0.360000000    -6.591000000    -0.458000000
H     0.523000000    -6.441000000    -0.121000000
H    -0.806000000    -7.067000000     0.241000000
O    -4.327000000     4.116000000    -2.308000000
H    -4.408000000     3.933000000    -1.372000000
H    -4.610000000     3.307000000    -2.736000000
O     6.857000000    -0.084000000    -1.438000000
H     5.989000000    -0.393000000    -1.697000000
H     7.037000000    -0.536000000    -0.615000000
O    -1.900000000     5.498000000    -1.293000000
H    -1.168000000     4.901000000    -1.446000000
H    -2.680000000     4.961000000    -1.434000000
