158
-3063.15496
C     0.702000000     1.199000000    -0.390000000
H     1.306000000     1.989000000    -0.831000000
C    -0.032000000     0.420000000    -1.160000000
H    -0.136000000     0.615000000    -2.224000000
C    -0.576000000    -0.783000000    -0.718000000
H    -1.139000000    -1.421000000    -1.432000000
C    -0.570000000    -1.115000000     0.592000000
H    -0.994000000    -2.011000000     1.039000000
C     0.096000000    -0.216000000     1.404000000
H     0.038000000    -0.404000000     2.473000000
C     0.802000000     0.944000000     0.974000000
C     1.512000000     1.904000000     1.866000000
O     2.146000000     2.824000000     1.364000000
O     1.733000000     1.651000000     3.071000000
O     0.880000000    -2.289000000    -3.145000000
H     0.179000000    -2.780000000    -2.716000000
H     1.314000000    -1.819000000    -2.433000000
O     4.149000000     2.629000000    -1.651000000
H     3.375000000     2.954000000    -2.112000000
H     4.776000000     3.351000000    -1.699000000
O     0.407000000     2.186000000     5.143000000
H     1.012000000     1.915000000     4.453000000
H    -0.458000000     2.130000000     4.739000000
O    -1.194000000    -3.958000000    -2.061000000
H    -2.021000000    -3.482000000    -1.985000000
H    -1.079000000    -4.375000000    -1.207000000
O    -6.048000000    -1.284000000     2.112000000
H    -6.299000000    -0.659000000     2.793000000
H    -5.866000000    -0.741000000     1.345000000
O    -2.618000000    -2.249000000    -7.787000000
H    -3.519000000    -2.557000000    -7.685000000
H    -2.311000000    -2.106000000    -6.892000000
O     1.881000000     4.745000000    -0.422000000
H     2.222000000     4.033000000     0.120000000
H     2.662000000     5.202000000    -0.737000000
O     6.458000000     2.476000000     3.466000000
H     7.158000000     3.114000000     3.602000000
H     6.202000000     2.591000000     2.551000000
O    -1.791000000    -2.196000000    -5.061000000
H    -2.174000000    -1.959000000    -4.217000000
H    -0.858000000    -2.311000000    -4.877000000
O     4.964000000     6.052000000     1.738000000
H     4.890000000     7.004000000     1.807000000
H     4.089000000     5.728000000     1.952000000
O     4.851000000     2.222000000     1.046000000
H     4.907000000     2.422000000     0.112000000
H     3.946000000     2.426000000     1.281000000
O     2.203000000    -0.695000000    -4.755000000
H     1.973000000    -0.975000000    -5.641000000
H     1.730000000    -1.300000000    -4.183000000
O     1.768000000     3.756000000    -3.337000000
H     1.532000000     4.356000000    -4.045000000
H     1.257000000     4.059000000    -2.587000000
O     2.544000000     5.062000000     2.359000000
H     2.341000000     4.209000000     1.975000000
H     2.228000000     4.999000000     3.261000000
O    -1.856000000    -4.920000000     3.133000000
H    -2.355000000    -5.553000000     3.649000000
H    -1.049000000    -4.789000000     3.630000000
O    -3.140000000    -6.689000000     0.340000000
H    -3.887000000    -6.222000000    -0.036000000
H    -2.379000000    -6.170000000     0.079000000
O     0.973000000    -1.892000000    -6.877000000
H     1.456000000    -2.226000000    -7.634000000
H     0.944000000    -2.629000000    -6.267000000
O    -2.731000000     2.102000000     4.788000000
H    -2.966000000     2.352000000     5.682000000
H    -3.218000000     1.294000000     4.630000000
O     3.684000000     1.620000000     7.070000000
H     3.573000000     0.695000000     6.849000000
H     3.973000000     2.028000000     6.254000000
O     4.286000000     5.755000000    -1.071000000
H     4.895000000     5.730000000    -1.809000000
H     4.848000000     5.752000000    -0.296000000
O    -1.050000000    -4.984000000     0.589000000
H    -0.437000000    -5.662000000     0.874000000
H    -1.301000000    -4.534000000     1.396000000
O    -0.561000000     4.231000000     1.016000000
H     0.061000000     4.433000000     0.317000000
H    -0.362000000     4.867000000     1.704000000
O    -1.617000000     1.907000000    -5.088000000
H    -1.483000000     2.365000000    -4.258000000
H    -2.159000000     1.152000000    -4.861000000
O    -0.660000000     5.428000000    -2.933000000
H    -0.633000000     5.858000000    -3.787000000
H    -0.253000000     6.055000000    -2.335000000
O     0.872000000    -3.883000000    -5.250000000
H     1.134000000    -4.800000000    -5.166000000
H     1.064000000    -3.499000000    -4.395000000
O     2.205000000     4.551000000     4.946000000
H     3.037000000     4.156000000     5.206000000
H     1.672000000     3.813000000     4.648000000
O    -5.259000000     0.205000000     0.017000000
H    -4.526000000     0.802000000    -0.134000000
H    -6.037000000     0.726000000    -0.182000000
O     2.027000000    -5.003000000    -0.991000000
H     2.167000000    -4.468000000    -0.210000000
H     2.280000000    -4.435000000    -1.719000000
O     0.021000000     0.833000000    -7.353000000
H    -0.342000000     1.358000000    -6.639000000
H     0.183000000    -0.025000000    -6.961000000
O    -4.919000000    -4.871000000    -0.573000000
H    -4.596000000    -4.042000000    -0.219000000
H    -5.465000000    -4.617000000    -1.317000000
O    -3.910000000    -2.238000000     0.433000000
H    -4.425000000    -1.437000000     0.340000000
H    -3.518000000    -2.171000000     1.304000000
O    -4.196000000    -0.343000000     4.551000000
H    -3.851000000    -1.052000000     4.008000000
H    -5.133000000    -0.326000000     4.356000000
O     2.366000000    -1.951000000    -0.597000000
H     3.045000000    -1.580000000    -0.033000000
H     1.572000000    -1.927000000    -0.063000000
O    -5.180000000    -1.673000000    -4.466000000
H    -6.002000000    -2.001000000    -4.102000000
H    -4.504000000    -2.019000000    -3.882000000
O     4.019000000     2.373000000     4.542000000
H     4.816000000     2.351000000     4.012000000
H     3.312000000     2.199000000     3.920000000
O     1.193000000     2.870000000     7.658000000
H     0.687000000     2.876000000     6.845000000
H     1.931000000     2.289000000     7.476000000
O    -3.478000000    -2.174000000    -2.331000000
H    -3.240000000    -1.249000000    -2.401000000
H    -3.834000000    -2.264000000    -1.447000000
O    -3.186000000    -2.513000000     3.346000000
H    -2.410000000    -2.915000000     3.737000000
H    -3.768000000    -3.250000000     3.158000000
O     2.145000000    -1.299000000     3.661000000
H     2.355000000    -0.376000000     3.522000000
H     2.940000000    -1.671000000     4.042000000
O    -3.291000000     2.143000000    -0.414000000
H    -2.434000000     1.882000000    -0.077000000
H    -3.374000000     3.064000000    -0.167000000
O    -3.243000000     0.506000000    -2.726000000
H    -3.079000000     1.125000000    -2.015000000
H    -4.103000000     0.754000000    -3.065000000
O     4.065000000    -0.004000000    -2.455000000
H     3.634000000     0.136000000    -3.299000000
H     4.157000000     0.873000000    -2.084000000
O     3.227000000     1.810000000    -4.694000000
H     2.577000000     2.322000000    -4.213000000
H     2.919000000     0.906000000    -4.625000000
O     0.677000000    -3.997000000     3.950000000
H     1.081000000    -3.204000000     3.598000000
H     0.609000000    -3.835000000     4.890000000
O     0.773000000    -7.488000000    -0.790000000
H     0.958000000    -6.591000000    -1.070000000
H     0.471000000    -7.399000000     0.114000000
O     1.163000000     7.251000000     0.613000000
H     1.029000000     7.506000000     1.526000000
H     1.384000000     6.321000000     0.654000000
O     4.338000000    -1.035000000     1.214000000
H     4.597000000    -1.193000000     2.121000000
H     4.899000000    -0.314000000     0.926000000
O     3.974000000    -2.805000000    -2.894000000
H     3.791000000    -2.268000000    -3.665000000
H     3.494000000    -2.376000000    -2.185000000
