158
-3006.94298
C     0.321000000     0.583000000    -1.334000000
H     0.648000000     0.933000000    -2.310000000
C     0.082000000    -0.783000000    -1.141000000
H     0.222000000    -1.592000000    -1.853000000
C    -0.243000000    -1.169000000     0.151000000
H    -0.439000000    -2.250000000     0.341000000
C    -0.356000000    -0.267000000     1.214000000
H    -0.622000000    -0.676000000     2.185000000
C    -0.159000000     1.072000000     1.019000000
H    -0.128000000     1.753000000     1.866000000
C     0.157000000     1.536000000    -0.312000000
C     0.690000000     2.968000000    -0.464000000
O     1.262000000     3.240000000    -1.452000000
O     0.355000000     3.856000000     0.275000000
O    -5.925000000    -2.358000000     3.361000000
H    -5.511000000    -3.219000000     3.297000000
H    -5.193000000    -1.744000000     3.414000000
O     0.917000000    -1.711000000    -5.259000000
H     0.978000000    -2.398000000    -4.595000000
H     1.264000000    -0.930000000    -4.828000000
O     1.844000000     0.783000000    -4.865000000
H     2.569000000     0.484000000    -5.414000000
H     1.433000000     1.482000000    -5.373000000
O    -1.498000000     2.607000000     4.224000000
H    -1.313000000     3.408000000     3.733000000
H    -2.331000000     2.296000000     3.870000000
O     1.102000000    -3.910000000    -3.578000000
H     1.095000000    -4.737000000    -4.061000000
H     1.914000000    -3.935000000    -3.072000000
O    -4.732000000     0.672000000    -2.741000000
H    -4.176000000     0.512000000    -1.978000000
H    -4.607000000     1.601000000    -2.937000000
O     1.140000000     4.193000000    -4.008000000
H     1.207000000     3.828000000    -3.126000000
H     1.997000000     4.029000000    -4.401000000
O    -2.039000000    -0.921000000    -5.921000000
H    -1.782000000    -1.730000000    -5.477000000
H    -1.737000000    -0.223000000    -5.340000000
O     3.194000000     6.121000000     2.560000000
H     3.732000000     5.383000000     2.275000000
H     2.566000000     6.248000000     1.849000000
O    -2.334000000    -7.524000000    -1.756000000
H    -1.582000000    -7.467000000    -1.165000000
H    -2.709000000    -6.643000000    -1.750000000
O    -4.644000000    -4.949000000     3.173000000
H    -5.428000000    -5.496000000     3.122000000
H    -4.446000000    -4.728000000     2.262000000
O    -0.674000000     5.212000000     2.291000000
H    -0.490000000     4.532000000     1.642000000
H    -1.577000000     5.474000000     2.113000000
O     3.896000000     2.967000000    -0.916000000
H     4.163000000     2.581000000    -1.750000000
H     2.956000000     3.121000000    -1.014000000
O    -0.037000000     0.491000000    -7.692000000
H    -0.063000000    -0.407000000    -8.023000000
H     0.077000000     0.394000000    -6.746000000
O     2.061000000     5.930000000    -0.103000000
H     1.511000000     5.147000000    -0.109000000
H     1.493000000     6.619000000     0.243000000
O    -1.952000000    -5.475000000     4.035000000
H    -1.713000000    -4.548000000     4.015000000
H    -2.878000000    -5.489000000     3.794000000
O     1.468000000     3.761000000     5.604000000
H     1.309000000     3.074000000     4.958000000
H     1.510000000     4.568000000     5.091000000
O    -1.432000000    -3.016000000     3.877000000
H    -1.992000000    -2.699000000     4.585000000
H    -0.541000000    -2.831000000     4.175000000
O     2.988000000    -7.279000000     0.084000000
H     2.325000000    -6.639000000     0.343000000
H     3.788000000    -6.766000000    -0.021000000
O     4.221000000     1.692000000    -3.598000000
H     3.576000000     1.210000000    -4.115000000
H     4.564000000     2.354000000    -4.199000000
O    -3.899000000     2.705000000     2.506000000
H    -4.627000000     3.214000000     2.863000000
H    -3.853000000     2.965000000     1.586000000
O     3.286000000     0.481000000     3.144000000
H     3.223000000     0.358000000     4.091000000
H     2.496000000     0.968000000     2.912000000
O     3.676000000    -3.449000000     1.642000000
H     4.555000000    -3.824000000     1.582000000
H     3.765000000    -2.572000000     1.268000000
O    -1.105000000     3.715000000    -5.603000000
H    -1.717000000     4.233000000    -5.080000000
H    -0.239000000     3.996000000    -5.305000000
O     6.720000000     2.775000000    -0.581000000
H     5.777000000     2.788000000    -0.747000000
H     6.950000000     1.846000000    -0.583000000
O     1.202000000    -5.381000000     1.298000000
H     1.557000000    -4.493000000     1.333000000
H     1.380000000    -5.744000000     2.165000000
O     1.131000000     6.294000000     4.207000000
H     1.979000000     6.211000000     3.771000000
H     0.491000000     6.255000000     3.497000000
O     3.383000000    -3.631000000    -1.866000000
H     2.841000000    -3.827000000    -1.102000000
H     3.737000000    -2.759000000    -1.691000000
O    -4.297000000    -5.050000000    -2.057000000
H    -3.906000000    -4.675000000    -2.847000000
H    -4.821000000    -4.338000000    -1.689000000
O    -2.214000000     7.828000000    -0.237000000
H    -1.399000000     8.330000000    -0.225000000
H    -2.032000000     7.090000000    -0.819000000
O    -2.965000000    -1.612000000     5.568000000
H    -2.653000000    -0.710000000     5.633000000
H    -3.894000000    -1.561000000     5.793000000
O    -3.999000000    -2.261000000     0.438000000
H    -3.305000000    -2.915000000     0.517000000
H    -3.536000000    -1.424000000     0.403000000
O     3.297000000    -1.062000000     0.041000000
H     3.659000000    -0.869000000    -0.823000000
H     2.421000000    -0.678000000     0.026000000
O    -3.873000000    -3.286000000    -5.244000000
H    -4.405000000    -2.509000000    -5.411000000
H    -3.149000000    -2.970000000    -4.704000000
O     0.597000000     7.218000000    -4.037000000
H     1.366000000     7.466000000    -3.523000000
H     0.509000000     6.275000000    -3.897000000
O     2.289000000     3.241000000     2.643000000
H     3.085000000     3.239000000     2.113000000
H     1.612000000     3.583000000     2.058000000
O     0.113000000     0.289000000     5.152000000
H     0.152000000     0.408000000     6.101000000
H    -0.524000000     0.939000000     4.855000000
O    -1.498000000    -3.117000000    -3.729000000
H    -0.688000000    -3.611000000    -3.859000000
H    -1.278000000    -2.468000000    -3.061000000
O    -2.422000000    -4.302000000     1.118000000
H    -1.777000000    -4.303000000     1.825000000
H    -2.718000000    -5.210000000     1.061000000
O    -0.747000000    -7.215000000     0.695000000
H    -0.042000000    -6.568000000     0.671000000
H    -0.560000000    -7.745000000     1.470000000
O    -5.799000000    -4.193000000     0.809000000
H    -5.312000000    -3.399000000     0.586000000
H    -6.596000000    -3.873000000     1.232000000
O    -3.425000000     0.238000000     0.131000000
H    -2.484000000     0.365000000     0.016000000
H    -3.741000000     1.079000000     0.464000000
O     0.674000000     7.934000000     0.763000000
H     1.294000000     8.474000000     0.272000000
H     0.237000000     8.548000000     1.352000000
O    -0.776000000     1.004000000    -4.579000000
H    -0.936000000     1.948000000    -4.605000000
H     0.141000000     0.924000000    -4.320000000
O     4.833000000    -0.503000000    -2.086000000
H     4.985000000     0.075000000    -2.833000000
H     5.670000000    -0.518000000    -1.622000000
O     1.254000000    -1.864000000     4.148000000
H     1.948000000    -1.469000000     3.620000000
H     0.750000000    -1.120000000     4.477000000
O    -0.945000000     5.708000000    -1.432000000
H    -0.940000000     5.175000000    -2.228000000
H    -0.476000000     5.179000000    -0.787000000
O     4.289000000     7.495000000    -1.054000000
H     3.989000000     8.345000000    -0.733000000
H     3.658000000     6.869000000    -0.697000000
