158
-3031.11700
C     1.019000000     0.976000000    -0.540000000
H     1.719000000     1.688000000    -0.969000000
C     0.164000000     0.303000000    -1.284000000
H     0.320000000     0.293000000    -2.360000000
C    -0.743000000    -0.615000000    -0.756000000
H    -1.374000000    -1.246000000    -1.355000000
C    -0.966000000    -0.705000000     0.619000000
H    -1.780000000    -1.308000000     1.011000000
C    -0.091000000     0.014000000     1.418000000
H    -0.308000000    -0.010000000     2.483000000
C     0.917000000     0.837000000     0.898000000
C     1.780000000     1.628000000     1.840000000
O     2.779000000     2.332000000     1.512000000
O     1.602000000     1.617000000     3.023000000
O    -0.168000000    -3.868000000    -4.077000000
H    -0.628000000    -4.414000000    -3.440000000
H     0.756000000    -3.950000000    -3.840000000
O     3.676000000     1.131000000    -2.589000000
H     3.502000000     2.007000000    -2.932000000
H     4.295000000     0.749000000    -3.212000000
O    -1.949000000     2.457000000     2.043000000
H    -2.733000000     2.992000000     2.160000000
H    -2.257000000     1.677000000     1.581000000
O    -0.359000000     2.259000000     4.748000000
H     0.345000000     2.073000000     4.127000000
H    -1.041000000     1.622000000     4.536000000
O    -1.682000000    -5.056000000    -2.321000000
H    -1.806000000    -5.992000000    -2.475000000
H    -2.145000000    -4.884000000    -1.501000000
O    -4.532000000    -1.404000000     0.226000000
H    -5.470000000    -1.427000000     0.036000000
H    -4.281000000    -0.491000000     0.083000000
O     3.198000000     4.064000000    -0.558000000
H     3.107000000     3.600000000     0.274000000
H     4.135000000     4.026000000    -0.752000000
O     5.044000000     1.556000000     3.061000000
H     4.342000000     2.008000000     2.594000000
H     5.707000000     1.387000000     2.391000000
O    -1.797000000    -1.761000000    -5.530000000
H    -2.612000000    -1.867000000    -5.039000000
H    -1.263000000    -2.512000000    -5.271000000
O     5.567000000     5.644000000     1.481000000
H     5.361000000     5.290000000     0.616000000
H     4.806000000     5.423000000     2.018000000
O     0.105000000     4.179000000     2.962000000
H    -0.331000000     3.428000000     3.365000000
H    -0.045000000     4.067000000     2.023000000
O     4.399000000     0.760000000     0.083000000
H     4.150000000     0.857000000    -0.836000000
H     3.872000000     1.413000000     0.544000000
O     0.266000000     0.126000000    -4.784000000
H     0.840000000    -0.324000000    -5.403000000
H    -0.586000000    -0.296000000    -4.897000000
O     2.544000000     3.726000000    -3.153000000
H     2.602000000     3.895000000    -2.213000000
H     3.036000000     4.442000000    -3.556000000
O    -2.374000000     4.723000000     4.818000000
H    -3.015000000     4.665000000     4.110000000
H    -1.574000000     4.349000000     4.447000000
O     3.159000000     4.527000000     2.855000000
H     2.933000000     3.637000000     2.586000000
H     2.378000000     4.846000000     3.308000000
O     3.794000000     3.535000000     7.371000000
H     2.923000000     3.754000000     7.701000000
H     3.629000000     3.021000000     6.581000000
O     2.091000000    -1.189000000    -6.265000000
H     2.973000000    -0.921000000    -6.007000000
H     2.221000000    -2.004000000    -6.750000000
O    -2.211000000    -0.555000000     4.865000000
H    -2.980000000    -0.452000000     5.426000000
H    -2.525000000    -1.070000000     4.122000000
O     2.442000000    -0.331000000     7.101000000
H     2.678000000    -1.166000000     6.696000000
H     2.642000000     0.324000000     6.432000000
O     4.575000000    -1.500000000     3.902000000
H     4.587000000    -0.666000000     4.371000000
H     3.915000000    -2.022000000     4.359000000
O     1.415000000    -5.091000000     2.425000000
H     2.142000000    -4.808000000     2.979000000
H     1.328000000    -4.397000000     1.771000000
O    -0.843000000     4.085000000    -1.424000000
H    -0.952000000     3.172000000    -1.156000000
H    -0.382000000     4.496000000    -0.693000000
O    -4.271000000     1.012000000    -6.255000000
H    -4.188000000     0.755000000    -5.336000000
H    -3.378000000     1.226000000    -6.525000000
O     1.483000000     5.057000000     5.520000000
H     1.072000000     5.471000000     6.278000000
H     0.805000000     4.484000000     5.162000000
O     1.751000000    -5.658000000    -1.010000000
H     0.991000000    -5.280000000    -0.569000000
H     2.495000000    -5.156000000    -0.677000000
O    -4.631000000     1.289000000     1.439000000
H    -5.430000000     1.422000000     0.930000000
H    -4.937000000     1.173000000     2.339000000
O    -4.476000000    -6.455000000    -1.142000000
H    -4.017000000    -5.773000000    -0.650000000
H    -5.125000000    -5.980000000    -1.661000000
O    -0.269000000    -1.921000000     6.695000000
H    -0.072000000    -2.592000000     6.041000000
H    -0.263000000    -1.099000000     6.204000000
O    -3.252000000    -4.152000000     0.014000000
H    -2.973000000    -4.361000000     0.905000000
H    -3.711000000    -3.315000000     0.097000000
O    -3.869000000    -1.985000000     2.945000000
H    -4.138000000    -1.590000000     2.116000000
H    -3.502000000    -2.834000000     2.699000000
O     1.466000000    -2.710000000     0.563000000
H     2.057000000    -2.560000000    -0.174000000
H     0.650000000    -2.277000000     0.309000000
O     0.519000000     6.459000000    -2.491000000
H     0.950000000     6.883000000    -1.750000000
H     0.941000000     5.602000000    -2.556000000
O     3.265000000     1.353000000     5.035000000
H     4.128000000     1.373000000     4.620000000
H     2.649000000     1.466000000     4.312000000
O     0.267000000     1.891000000     7.802000000
H     0.000000000     1.725000000     6.898000000
H     0.852000000     1.163000000     8.016000000
O    -4.060000000    -3.357000000    -3.777000000
H    -4.133000000    -2.819000000    -2.988000000
H    -3.369000000    -3.987000000    -3.574000000
O    -3.215000000    -4.984000000     2.338000000
H    -2.423000000    -4.882000000     2.866000000
H    -3.348000000    -5.931000000     2.288000000
O    -2.804000000     2.254000000    -0.779000000
H    -3.393000000     2.016000000    -0.063000000
H    -3.308000000     2.873000000    -1.308000000
O     4.368000000     5.256000000     5.136000000
H     3.857000000     4.909000000     4.405000000
H     3.831000000     5.082000000     5.909000000
O     1.482000000    -1.419000000     3.587000000
H     1.384000000    -0.473000000     3.478000000
H     1.473000000    -1.765000000     2.695000000
O    -3.168000000     1.091000000    -3.234000000
H    -2.713000000     1.621000000    -3.889000000
H    -2.625000000     1.161000000    -2.449000000
O    -5.432000000    -0.100000000    -3.102000000
H    -4.540000000     0.244000000    -3.124000000
H    -5.959000000     0.621000000    -2.758000000
O     2.704000000    -1.489000000    -1.816000000
H     2.650000000    -1.814000000    -2.714000000
H     2.228000000    -0.659000000    -1.832000000
O     1.337000000     2.679000000    -5.242000000
H     1.913000000     2.918000000    -4.516000000
H     0.925000000     1.862000000    -4.961000000
O     0.969000000    -3.726000000     5.153000000
H     1.180000000    -3.049000000     4.510000000
H     1.818000000    -3.998000000     5.501000000
O     2.182000000     6.593000000    -0.449000000
H     2.069000000     7.002000000     0.409000000
H     2.577000000     5.742000000    -0.258000000
O     4.668000000    -2.067000000     1.206000000
H     4.519000000    -2.031000000     2.151000000
H     4.487000000    -1.178000000     0.901000000
O     2.507000000    -4.038000000    -3.784000000
H     3.345000000    -4.136000000    -4.235000000
H     2.540000000    -4.681000000    -3.075000000
