158
-3063.72965
C     0.633000000     1.260000000    -0.549000000
H     1.122000000     2.024000000    -1.148000000
C     0.110000000     0.209000000    -1.294000000
H     0.074000000     0.249000000    -2.380000000
C    -0.399000000    -0.939000000    -0.689000000
H    -0.693000000    -1.749000000    -1.310000000
C    -0.553000000    -0.976000000     0.715000000
H    -0.967000000    -1.842000000     1.225000000
C    -0.108000000     0.061000000     1.513000000
H    -0.200000000     0.026000000     2.596000000
C     0.519000000     1.137000000     0.892000000
C     1.052000000     2.251000000     1.795000000
O     1.563000000     3.235000000     1.351000000
O     0.993000000     2.118000000     3.032000000
O    -1.836000000    -3.171000000     3.667000000
H    -0.917000000    -2.910000000     3.608000000
H    -2.214000000    -2.906000000     2.828000000
O     2.958000000     0.647000000    -3.570000000
H     3.698000000     0.752000000    -2.972000000
H     2.543000000    -0.170000000    -3.295000000
O     4.846000000     2.236000000    -2.335000000
H     5.337000000     2.896000000    -2.826000000
H     4.274000000     2.743000000    -1.760000000
O     1.065000000    -3.974000000    -1.417000000
H     0.944000000    -3.120000000    -1.001000000
H     1.627000000    -4.458000000    -0.812000000
O    -2.294000000     4.564000000    -2.333000000
H    -2.275000000     5.085000000    -1.530000000
H    -2.677000000     3.728000000    -2.067000000
O     3.669000000     6.011000000     5.258000000
H     3.388000000     5.928000000     4.347000000
H     4.608000000     5.827000000     5.237000000
O    -1.935000000     1.651000000    -6.218000000
H    -1.616000000     2.453000000    -5.804000000
H    -2.169000000     1.080000000    -5.487000000
O    -3.617000000    -6.388000000     0.797000000
H    -3.420000000    -6.828000000     1.624000000
H    -3.019000000    -6.787000000     0.165000000
O    -5.247000000    -4.060000000    -1.214000000
H    -5.772000000    -4.463000000    -1.905000000
H    -4.514000000    -3.652000000    -1.677000000
O     3.102000000     5.096000000     2.745000000
H     2.555000000     4.373000000     2.438000000
H     3.725000000     5.244000000     2.034000000
O     0.911000000     4.633000000    -3.125000000
H     1.189000000     4.792000000    -2.223000000
H     1.712000000     4.716000000    -3.642000000
O     1.287000000     2.397000000    -5.001000000
H     1.739000000     1.728000000    -4.487000000
H     1.222000000     3.149000000    -4.412000000
O     0.643000000     5.447000000    -0.084000000
H    -0.296000000     5.386000000    -0.259000000
H     0.822000000     4.726000000     0.519000000
O     2.863000000     1.622000000     4.728000000
H     2.572000000     0.723000000     4.885000000
H     2.137000000     2.030000000     4.257000000
O     2.063000000     4.263000000     6.502000000
H     2.722000000     4.731000000     5.988000000
H     1.257000000     4.762000000     6.368000000
O    -1.195000000    -0.369000000     5.681000000
H    -0.703000000     0.353000000     6.072000000
H    -1.854000000    -0.594000000     6.338000000
O     2.980000000     6.381000000    -0.942000000
H     2.989000000     7.309000000    -1.177000000
H     2.124000000     6.245000000    -0.536000000
O    -0.926000000     3.661000000     4.300000000
H    -0.610000000     4.501000000     3.969000000
H    -0.171000000     3.077000000     4.232000000
O    -1.452000000    -4.696000000    -1.915000000
H    -0.534000000    -4.452000000    -1.792000000
H    -1.834000000    -4.638000000    -1.039000000
O     4.552000000    -0.664000000    -0.026000000
H     4.908000000     0.188000000    -0.277000000
H     4.037000000    -0.486000000     0.761000000
O    -2.166000000    -0.051000000    -3.777000000
H    -3.034000000    -0.339000000    -4.060000000
H    -2.340000000     0.622000000    -3.118000000
O    -3.031000000    -0.607000000     3.687000000
H    -3.060000000     0.323000000     3.463000000
H    -2.357000000    -0.669000000     4.363000000
O    -5.017000000    -2.342000000     3.830000000
H    -4.602000000    -3.201000000     3.917000000
H    -4.295000000    -1.747000000     3.626000000
O     3.161000000    -4.339000000     0.145000000
H     3.614000000    -5.173000000     0.270000000
H     3.612000000    -3.930000000    -0.594000000
O    -2.892000000     1.973000000    -1.768000000
H    -3.479000000     1.241000000    -1.580000000
H    -2.175000000     1.873000000    -1.142000000
O     3.268000000     3.625000000    -0.494000000
H     3.108000000     4.550000000    -0.682000000
H     2.591000000     3.390000000     0.141000000
O     5.238000000     2.087000000     3.555000000
H     4.372000000     1.982000000     3.948000000
H     5.766000000     2.492000000     4.244000000
O     0.319000000     6.424000000     3.657000000
H     1.196000000     6.303000000     3.294000000
H     0.463000000     6.538000000     4.597000000
O    -2.945000000     4.438000000     6.047000000
H    -2.375000000     3.867000000     5.531000000
H    -3.810000000     4.033000000     5.986000000
O    -2.884000000     1.168000000     0.830000000
H    -2.120000000     0.624000000     1.022000000
H    -3.182000000     1.472000000     1.687000000
O     0.561000000     1.794000000     6.749000000
H     0.067000000     2.373000000     7.330000000
H     1.354000000     2.286000000     6.538000000
O    -0.194000000    -2.018000000    -4.706000000
H    -0.769000000    -1.433000000    -4.214000000
H     0.022000000    -1.530000000    -5.501000000
O    -0.997000000    -4.714000000     0.849000000
H    -1.720000000    -5.185000000     1.264000000
H    -0.386000000    -5.401000000     0.583000000
O    -4.697000000    -0.097000000    -1.782000000
H    -4.893000000    -0.555000000    -2.599000000
H    -5.548000000     0.007000000    -1.356000000
O    -1.639000000    -3.490000000     6.445000000
H    -1.730000000    -3.394000000     5.497000000
H    -1.103000000    -4.275000000     6.557000000
O     2.852000000    -3.441000000     2.563000000
H     2.772000000    -3.797000000     1.678000000
H     2.839000000    -2.491000000     2.442000000
O    -4.633000000    -1.332000000    -4.275000000
H    -4.357000000    -2.102000000    -3.779000000
H    -5.260000000    -1.671000000    -4.914000000
O     2.143000000    -3.525000000    -4.029000000
H     1.383000000    -3.109000000    -4.436000000
H     1.857000000    -3.728000000    -3.138000000
O     0.722000000    -4.161000000     4.326000000
H     1.460000000    -4.148000000     3.717000000
H     0.006000000    -4.553000000     3.826000000
O     5.750000000     3.604000000     1.228000000
H     5.046000000     3.407000000     0.610000000
H     5.723000000     2.885000000     1.859000000
O    -1.272000000     4.094000000    -4.965000000
H    -1.610000000     4.323000000    -4.099000000
H    -0.701000000     4.824000000    -5.200000000
O    -3.481000000    -3.769000000    -3.629000000
H    -2.685000000    -3.848000000    -3.102000000
H    -3.363000000    -4.402000000    -4.337000000
O     4.247000000    -2.840000000    -1.705000000
H     3.796000000    -2.628000000    -2.523000000
H     4.140000000    -2.057000000    -1.164000000
O     2.861000000    -0.551000000     2.046000000
H     2.116000000    -0.266000000     1.517000000
H     2.634000000    -0.291000000     2.939000000
O    -0.290000000    -6.886000000    -3.490000000
H    -0.749000000    -6.230000000    -2.965000000
H    -0.126000000    -6.451000000    -4.327000000
O     1.305000000    -1.096000000     4.623000000
H     1.518000000    -1.714000000     5.322000000
H     0.423000000    -0.790000000     4.834000000
O     2.660000000    -6.453000000    -2.274000000
H     2.792000000    -5.516000000    -2.420000000
H     2.232000000    -6.505000000    -1.420000000
O    -3.099000000     2.117000000     3.292000000
H    -2.411000000     2.602000000     3.749000000
H    -3.818000000     2.743000000     3.208000000
