158
-3007.76861
C     0.690000000     1.018000000    -0.861000000
H     1.391000000     1.569000000    -1.483000000
C     0.071000000    -0.130000000    -1.381000000
H     0.197000000    -0.492000000    -2.398000000
C    -0.567000000    -1.006000000    -0.462000000
H    -1.107000000    -1.973000000    -0.791000000
C    -0.621000000    -0.625000000     0.859000000
H    -1.048000000    -1.301000000     1.595000000
C     0.019000000     0.481000000     1.386000000
H     0.129000000     0.539000000     2.466000000
C     0.682000000     1.336000000     0.478000000
C     1.546000000     2.460000000     1.104000000
O     2.005000000     3.286000000     0.314000000
O     1.764000000     2.610000000     2.262000000
O     1.876000000    -2.118000000     2.859000000
H     1.697000000    -3.056000000     2.801000000
H     2.203000000    -1.882000000     1.991000000
O    -0.856000000     3.329000000    -4.933000000
H    -0.919000000     2.821000000    -4.124000000
H    -0.547000000     4.190000000    -4.653000000
O    -2.748000000    -3.583000000    -2.173000000
H    -3.426000000    -3.881000000    -2.779000000
H    -1.952000000    -3.545000000    -2.703000000
O    -1.739000000     6.790000000    -0.083000000
H    -1.032000000     6.231000000     0.240000000
H    -1.977000000     7.334000000     0.668000000
O    -6.117000000    -3.349000000     2.694000000
H    -6.738000000    -4.050000000     2.890000000
H    -5.285000000    -3.799000000     2.550000000
O    -7.306000000    -2.407000000     0.291000000
H    -6.540000000    -2.074000000    -0.176000000
H    -6.960000000    -2.722000000     1.126000000
O     0.887000000     2.299000000     4.801000000
H     1.414000000     1.555000000     5.093000000
H     1.271000000     2.550000000     3.961000000
O     0.471000000     5.539000000     0.688000000
H     0.820000000     4.656000000     0.568000000
H     0.296000000     5.602000000     1.627000000
O    -1.642000000     3.324000000    -2.147000000
H    -2.505000000     3.639000000    -2.415000000
H    -1.814000000     2.772000000    -1.385000000
O    -3.524000000    -1.986000000     2.077000000
H    -3.609000000    -2.016000000     3.030000000
H    -3.067000000    -2.796000000     1.852000000
O     0.764000000     4.288000000    -2.371000000
H    -0.092000000     3.905000000    -2.179000000
H     1.266000000     4.167000000    -1.565000000
O     2.967000000     4.293000000    -4.298000000
H     3.521000000     4.226000000    -3.521000000
H     2.073000000     4.290000000    -3.956000000
O    -2.246000000    -4.538000000     4.560000000
H    -1.343000000    -4.514000000     4.243000000
H    -2.429000000    -5.469000000     4.690000000
O     2.810000000     0.520000000     3.728000000
H     2.632000000     1.268000000     3.157000000
H     2.317000000    -0.202000000     3.339000000
O    -1.864000000    -4.252000000     1.005000000
H    -1.842000000    -5.203000000     0.899000000
H    -1.597000000    -3.910000000     0.151000000
O     1.970000000     7.242000000    -0.959000000
H     1.446000000     6.486000000    -0.696000000
H     1.718000000     7.934000000    -0.347000000
O    -3.835000000    -1.389000000    -0.594000000
H    -3.817000000    -1.497000000     0.357000000
H    -3.329000000    -2.129000000    -0.929000000
O    -5.395000000     0.691000000    -1.382000000
H    -4.869000000    -0.071000000    -1.141000000
H    -5.184000000     1.349000000    -0.719000000
O    -4.879000000     1.335000000     1.361000000
H    -5.651000000     1.663000000     1.822000000
H    -4.723000000     0.470000000     1.740000000
O     0.058000000    -4.539000000     2.993000000
H    -0.404000000    -4.534000000     2.154000000
H     0.452000000    -5.409000000     3.045000000
O     2.462000000    -1.439000000     0.124000000
H     1.760000000    -0.830000000    -0.108000000
H     2.732000000    -1.822000000    -0.711000000
O     4.304000000     4.087000000     2.737000000
H     4.439000000     4.961000000     2.370000000
H     3.544000000     3.744000000     2.267000000
O    -3.873000000     2.929000000     3.749000000
H    -4.180000000     3.638000000     3.185000000
H    -3.196000000     2.489000000     3.234000000
O    -4.709000000    -5.579000000    -1.380000000
H    -4.081000000    -4.894000000    -1.611000000
H    -5.507000000    -5.340000000    -1.851000000
O     0.308000000    -5.365000000    -2.951000000
H     0.510000000    -5.193000000    -2.032000000
H     0.759000000    -6.187000000    -3.145000000
O     5.684000000     1.415000000     5.545000000
H     5.594000000     2.361000000     5.658000000
H     5.038000000     1.190000000     4.876000000
O    -0.269000000    -2.014000000     4.514000000
H    -0.768000000    -2.724000000     4.111000000
H     0.609000000    -2.095000000     4.139000000
O     4.709000000     6.725000000    -0.897000000
H     5.166000000     6.976000000    -1.700000000
H     3.858000000     7.160000000    -0.960000000
O    -4.244000000    -1.439000000     5.194000000
H    -4.687000000    -1.149000000     4.397000000
H    -3.462000000    -0.891000000     5.246000000
O    -0.984000000    -0.544000000    -5.151000000
H    -0.989000000    -1.500000000    -5.101000000
H    -1.287000000    -0.258000000    -4.289000000
O     3.910000000     4.201000000    -1.469000000
H     4.297000000     5.032000000    -1.192000000
H     3.189000000     4.057000000    -0.857000000
O    -0.423000000     4.466000000     5.903000000
H    -0.622000000     4.926000000     5.088000000
H     0.100000000     3.712000000     5.631000000
O     4.570000000     1.333000000    -1.462000000
H     4.363000000     2.096000000    -0.923000000
H     4.954000000     1.699000000    -2.259000000
O    -1.150000000     3.248000000     2.921000000
H    -0.522000000     2.797000000     3.485000000
H    -0.987000000     4.178000000     3.076000000
O    -2.367000000     0.445000000    -3.064000000
H    -2.968000000    -0.220000000    -2.729000000
H    -1.823000000     0.679000000    -2.312000000
O    -0.766000000    -3.297000000    -4.488000000
H    -0.782000000    -3.735000000    -5.339000000
H    -0.237000000    -3.869000000    -3.933000000
O     3.243000000    -1.316000000    -2.753000000
H     4.128000000    -1.681000000    -2.769000000
H     3.330000000    -0.461000000    -3.175000000
O    -0.571000000     5.683000000     3.497000000
H     0.051000000     6.338000000     3.814000000
H    -1.332000000     6.191000000     3.217000000
O    -2.359000000     1.341000000    -6.417000000
H    -2.108000000     2.093000000    -5.880000000
H    -2.052000000     0.581000000    -5.922000000
O     1.518000000    -0.529000000    -6.486000000
H     1.585000000    -1.018000000    -7.306000000
H     0.582000000    -0.519000000    -6.288000000
O     1.162000000    -5.637000000     0.007000000
H     1.377000000    -6.435000000     0.489000000
H     1.985000000    -5.379000000    -0.408000000
O    -2.364000000     2.444000000     0.205000000
H    -1.820000000     2.587000000     0.980000000
H    -2.922000000     1.702000000     0.437000000
O    -5.028000000    -3.571000000    -3.908000000
H    -5.796000000    -4.056000000    -3.606000000
H    -5.355000000    -3.031000000    -4.628000000
O    -4.169000000    -5.992000000     2.452000000
H    -3.554000000    -5.637000000     1.811000000
H    -3.794000000    -6.836000000     2.702000000
O    -1.519000000     0.136000000     5.729000000
H    -0.975000000    -0.629000000     5.541000000
H    -1.338000000     0.741000000     5.009000000
O     5.526000000     2.262000000     1.234000000
H     6.079000000     2.811000000     0.678000000
H     5.085000000     2.880000000     1.817000000
O     3.215000000    -3.623000000    -4.478000000
H     3.043000000    -3.473000000    -3.548000000
H     2.355000000    -3.563000000    -4.894000000
O     4.957000000    -0.654000000     1.207000000
H     4.009000000    -0.528000000     1.170000000
H     5.298000000     0.183000000     1.524000000
