158
-3023.21570
C     1.359000000    -0.104000000     0.599000000
H     2.415000000    -0.125000000     0.853000000
C     1.037000000     0.543000000    -0.559000000
H     1.826000000     1.149000000    -0.997000000
C    -0.266000000     0.619000000    -1.045000000
H    -0.465000000     1.220000000    -1.919000000
C    -1.289000000    -0.050000000    -0.365000000
H    -2.334000000    -0.054000000    -0.665000000
C    -0.967000000    -0.763000000     0.848000000
H    -1.723000000    -1.277000000     1.436000000
C     0.419000000    -0.837000000     1.283000000
C     0.703000000    -1.562000000     2.536000000
O     1.823000000    -1.664000000     2.906000000
O    -0.210000000    -2.030000000     3.172000000
O     2.144000000    -2.436000000     5.937000000
H     1.983000000    -2.223000000     5.018000000
H     1.341000000    -2.869000000     6.227000000
O    -1.613000000    -0.769000000    -3.707000000
H    -0.785000000    -1.032000000    -3.305000000
H    -1.357000000    -0.205000000    -4.437000000
O    -0.233000000    -4.096000000    -3.566000000
H    -0.152000000    -3.555000000    -4.352000000
H    -0.476000000    -3.480000000    -2.875000000
O    -4.022000000    -2.252000000    -0.367000000
H    -3.403000000    -2.899000000    -0.028000000
H    -3.840000000    -2.216000000    -1.306000000
O    -2.554000000     2.354000000    -5.402000000
H    -2.326000000     3.266000000    -5.585000000
H    -1.719000000     1.887000000    -5.436000000
O     2.462000000     2.794000000     2.022000000
H     2.094000000     3.174000000     2.820000000
H     2.723000000     1.909000000     2.276000000
O    -3.438000000     4.754000000     0.936000000
H    -4.300000000     4.391000000     0.733000000
H    -2.820000000     4.139000000     0.541000000
O    -4.597000000     5.362000000    -1.762000000
H    -3.857000000     4.802000000    -1.994000000
H    -4.243000000     6.251000000    -1.789000000
O     3.228000000     3.176000000    -5.075000000
H     2.917000000     2.277000000    -4.968000000
H     2.654000000     3.550000000    -5.743000000
O    -2.614000000    -4.676000000     0.066000000
H    -1.998000000    -5.376000000    -0.152000000
H    -3.450000000    -5.123000000     0.193000000
O     4.241000000    -3.247000000     2.520000000
H     4.884000000    -2.598000000     2.805000000
H     3.412000000    -2.768000000     2.496000000
O    -0.278000000    -2.991000000     7.153000000
H    -0.774000000    -2.309000000     6.699000000
H    -0.909000000    -3.698000000     7.285000000
O    -0.545000000    -4.475000000     4.502000000
H    -1.417000000    -4.448000000     4.894000000
H    -0.462000000    -3.639000000     4.042000000
O    -0.147000000     4.376000000    -2.101000000
H     0.589000000     4.969000000    -2.250000000
H    -0.055000000     4.103000000    -1.188000000
O    -3.127000000    -4.514000000    -3.863000000
H    -2.179000000    -4.544000000    -3.733000000
H    -3.405000000    -3.715000000    -3.414000000
O     1.225000000    -1.454000000    -3.027000000
H     0.868000000    -0.861000000    -2.366000000
H     1.915000000    -1.934000000    -2.570000000
O    -3.047000000    -4.033000000     5.526000000
H    -3.437000000    -4.231000000     4.675000000
H    -3.141000000    -3.084000000     5.618000000
O    -0.471000000    -2.907000000    -6.066000000
H    -0.712000000    -3.303000000    -6.904000000
H    -0.993000000    -2.106000000    -6.021000000
O     0.486000000     3.906000000     0.369000000
H     1.088000000     3.384000000     0.901000000
H     0.677000000     4.812000000     0.612000000
O    -5.174000000    -1.701000000     2.342000000
H    -4.850000000    -1.687000000     1.441000000
H    -4.557000000    -2.264000000     2.810000000
O    -2.731000000     3.504000000    -2.438000000
H    -2.712000000     3.395000000    -3.389000000
H    -1.818000000     3.663000000    -2.197000000
O    -1.709000000     1.239000000     3.379000000
H    -1.277000000     1.383000000     2.537000000
H    -0.995000000     1.219000000     4.015000000
O    -1.452000000    -1.318000000     5.306000000
H    -1.109000000    -0.435000000     5.441000000
H    -1.002000000    -1.633000000     4.522000000
O    -4.311000000    -0.320000000    -3.401000000
H    -4.573000000    -1.222000000    -3.219000000
H    -3.358000000    -0.360000000    -3.487000000
O     6.442000000    -1.248000000     2.482000000
H     6.541000000    -0.742000000     3.288000000
H     7.336000000    -1.491000000     2.240000000
O    -5.833000000     1.844000000    -1.697000000
H    -5.404000000     2.237000000    -0.937000000
H    -5.167000000     1.272000000    -2.079000000
O     2.503000000    -5.446000000     3.137000000
H     3.091000000    -4.779000000     2.782000000
H     1.880000000    -4.956000000     3.673000000
O    -0.798000000    -6.897000000     3.357000000
H    -1.755000000    -6.866000000     3.370000000
H    -0.526000000    -6.130000000     3.862000000
O    -1.338000000    -2.735000000    -1.433000000
H    -0.925000000    -2.157000000    -0.792000000
H    -1.595000000    -3.507000000    -0.929000000
O    -4.382000000    -4.240000000     3.217000000
H    -5.097000000    -4.802000000     3.516000000
H    -4.068000000    -4.659000000     2.415000000
O     2.156000000     0.371000000    -4.779000000
H     2.029000000    -0.385000000    -4.206000000
H     2.648000000     0.027000000    -5.524000000
O    -0.368000000     0.459000000    -5.640000000
H     0.539000000     0.430000000    -5.335000000
H    -0.324000000     0.170000000    -6.552000000
O     3.223000000     0.415000000     3.418000000
H     4.033000000     0.199000000     3.880000000
H     2.879000000    -0.431000000     3.131000000
O     0.681000000    -4.108000000     0.369000000
H     0.543000000    -4.974000000    -0.015000000
H     0.505000000    -4.229000000     1.302000000
O     4.834000000    -4.051000000     6.542000000
H     5.531000000    -3.431000000     6.329000000
H     4.026000000    -3.546000000     6.442000000
O     1.917000000     6.529000000    -1.559000000
H     1.893000000     6.736000000    -2.493000000
H     2.699000000     6.975000000    -1.235000000
O     2.590000000    -2.801000000    -1.198000000
H     1.843000000    -3.307000000    -0.877000000
H     3.331000000    -3.112000000    -0.679000000
O     4.991000000     1.387000000     0.255000000
H     4.571000000     2.246000000     0.284000000
H     4.947000000     1.129000000    -0.666000000
O    -0.527000000     7.169000000    -3.533000000
H    -1.344000000     7.511000000    -3.895000000
H    -0.755000000     6.297000000    -3.208000000
O     2.160000000     0.000000000     7.308000000
H     2.180000000    -0.867000000     6.903000000
H     3.080000000     0.210000000     7.470000000
O     6.287000000     1.909000000     2.729000000
H     5.727000000     1.729000000     3.484000000
H     5.848000000     1.479000000     1.996000000
O     4.363000000     4.530000000     0.467000000
H     3.446000000     4.312000000     0.633000000
H     4.424000000     4.597000000    -0.486000000
O     4.775000000    -4.269000000     0.239000000
H     4.479000000    -3.885000000     1.065000000
H     5.503000000    -3.712000000    -0.036000000
O    -4.354000000     0.350000000     4.069000000
H    -4.819000000    -0.076000000     3.349000000
H    -3.494000000     0.562000000     3.708000000
O     0.731000000     0.588000000     4.945000000
H     1.050000000     0.417000000     5.831000000
H     1.379000000     0.174000000     4.373000000
O     4.742000000    -0.521000000    -1.882000000
H     5.201000000    -1.144000000    -1.319000000
H     4.782000000    -0.912000000    -2.755000000
O    -5.226000000     1.870000000    -4.914000000
H    -4.287000000     2.021000000    -5.018000000
H    -5.287000000     0.994000000    -4.534000000
O    -3.435000000     3.187000000     4.344000000
H    -4.205000000     2.837000000     4.791000000
H    -3.022000000     2.422000000     3.944000000
