158
-3033.76989
C     1.289000000     0.583000000     0.451000000
H     2.231000000     1.039000000     0.747000000
C     0.436000000     1.117000000    -0.436000000
H     0.615000000     2.156000000    -0.703000000
C    -0.782000000     0.494000000    -0.774000000
H    -1.498000000     1.037000000    -1.403000000
C    -1.134000000    -0.729000000    -0.233000000
H    -2.083000000    -1.255000000    -0.314000000
C    -0.179000000    -1.316000000     0.632000000
H    -0.449000000    -2.329000000     0.921000000
C     1.071000000    -0.718000000     0.851000000
C     2.141000000    -1.419000000     1.647000000
O     3.249000000    -0.850000000     1.887000000
O     1.862000000    -2.503000000     2.151000000
O     6.621000000     1.130000000    -0.767000000
H     5.851000000     1.437000000    -1.245000000
H     7.299000000     1.041000000    -1.437000000
O    -5.148000000    -0.531000000    -0.201000000
H    -5.812000000    -0.754000000     0.452000000
H    -4.420000000    -1.124000000    -0.015000000
O    -1.078000000     0.302000000    -4.194000000
H    -0.177000000     0.608000000    -4.094000000
H    -1.614000000     1.026000000    -3.869000000
O     4.109000000     1.752000000    -1.459000000
H     4.078000000     2.675000000    -1.208000000
H     3.498000000     1.683000000    -2.193000000
O     2.271000000    -1.730000000    -2.384000000
H     3.195000000    -1.793000000    -2.625000000
H     2.157000000    -0.822000000    -2.104000000
O     0.085000000     4.152000000    -2.874000000
H     0.330000000     4.715000000    -2.139000000
H    -0.797000000     3.848000000    -2.660000000
O     3.786000000     4.404000000    -0.761000000
H     2.890000000     4.690000000    -0.937000000
H     3.941000000     4.648000000     0.151000000
O    -1.887000000     4.219000000    -5.462000000
H    -1.193000000     4.094000000    -4.815000000
H    -2.444000000     3.446000000    -5.368000000
O     6.010000000     1.780000000     4.489000000
H     6.460000000     2.414000000     3.930000000
H     5.454000000     1.284000000     3.889000000
O     1.502000000     2.225000000    -4.170000000
H     0.835000000     2.719000000    -3.693000000
H     2.307000000     2.728000000    -4.044000000
O    -0.778000000    -5.398000000     4.824000000
H    -1.699000000    -5.652000000     4.760000000
H    -0.328000000    -5.970000000     4.202000000
O    -2.432000000     3.530000000    -2.253000000
H    -2.475000000     3.754000000    -1.324000000
H    -3.314000000     3.703000000    -2.583000000
O     1.338000000     5.872000000    -0.975000000
H     0.981000000     6.128000000    -0.125000000
H     1.373000000     6.686000000    -1.476000000
O    -3.725000000     2.151000000    -4.914000000
H    -4.433000000     2.390000000    -5.511000000
H    -4.161000000     1.984000000    -4.078000000
O    -3.914000000    -3.098000000    -2.458000000
H    -3.662000000    -2.840000000    -1.571000000
H    -4.513000000    -2.409000000    -2.746000000
O    -4.895000000     1.305000000    -2.581000000
H    -5.414000000     1.456000000    -1.791000000
H    -4.526000000     0.430000000    -2.462000000
O     3.219000000    -4.222000000     3.822000000
H     2.639000000    -4.274000000     4.581000000
H     2.829000000    -3.546000000     3.268000000
O    -2.768000000    -0.309000000    -6.238000000
H    -3.320000000     0.428000000    -5.978000000
H    -1.976000000    -0.214000000    -5.709000000
O    -3.945000000    -2.784000000     0.307000000
H    -4.694000000    -3.274000000     0.646000000
H    -3.276000000    -3.449000000     0.148000000
O     1.196000000    -4.074000000     5.877000000
H     0.457000000    -4.565000000     5.517000000
H     0.935000000    -3.870000000     6.775000000
O     2.008000000    -1.370000000     5.877000000
H     2.109000000    -0.917000000     5.039000000
H     1.561000000    -2.186000000     5.655000000
O     4.589000000     1.392000000     1.946000000
H     4.927000000     1.302000000     1.055000000
H     4.002000000     0.644000000     2.056000000
O     0.203000000     6.262000000     1.471000000
H     0.306000000     5.667000000     2.213000000
H    -0.649000000     6.675000000     1.612000000
O    -0.835000000    -2.345000000    -4.070000000
H    -1.229000000    -1.494000000    -4.262000000
H    -0.153000000    -2.449000000    -4.734000000
O    -3.404000000     3.856000000     3.214000000
H    -3.847000000     3.116000000     2.799000000
H    -3.094000000     3.511000000     4.051000000
O    -1.959000000    -5.448000000     1.916000000
H    -1.373000000    -6.204000000     1.886000000
H    -1.607000000    -4.846000000     1.259000000
O    -0.785000000     1.369000000     2.574000000
H    -1.381000000     0.727000000     2.959000000
H    -0.773000000     1.155000000     1.641000000
O     4.433000000    -3.891000000     0.573000000
H     3.717000000    -3.711000000     1.183000000
H     4.755000000    -3.026000000     0.320000000
O     3.386000000     3.375000000     3.579000000
H     4.176000000     2.879000000     3.363000000
H     3.475000000     3.575000000     4.510000000
O    -6.310000000     3.587000000    -0.276000000
H    -6.926000000     2.966000000    -0.667000000
H    -6.638000000     4.447000000    -0.539000000
O     1.084000000    -4.708000000     0.955000000
H     1.311000000    -3.957000000     1.504000000
H     0.644000000    -4.325000000     0.196000000
O     6.332000000    -1.056000000     3.055000000
H     5.395000000    -0.926000000     3.197000000
H     6.474000000    -1.987000000     3.229000000
O    -1.725000000    -4.395000000    -0.961000000
H    -1.620000000    -5.055000000    -1.646000000
H    -1.621000000    -3.559000000    -1.415000000
O     3.244000000    -6.919000000     1.398000000
H     3.020000000    -5.998000000     1.270000000
H     3.806000000    -6.924000000     2.173000000
O     7.466000000     1.203000000     1.827000000
H     7.196000000     1.037000000     0.923000000
H     7.017000000     0.530000000     2.338000000
O     1.087000000    -4.049000000    -3.097000000
H     1.823000000    -3.482000000    -2.865000000
H     0.377000000    -3.444000000    -3.311000000
O    -6.183000000    -1.542000000    -2.467000000
H    -6.605000000    -2.316000000    -2.094000000
H    -5.695000000    -1.161000000    -1.737000000
O    -4.973000000     1.990000000     1.719000000
H    -5.307000000     1.095000000     1.770000000
H    -5.452000000     2.384000000     0.990000000
O    -4.741000000     4.774000000    -2.842000000
H    -5.169000000     4.337000000    -2.106000000
H    -5.439000000     4.901000000    -3.484000000
O     0.556000000    -6.871000000     3.025000000
H     1.426000000    -6.871000000     3.423000000
H     0.711000000    -6.649000000     2.108000000
O     5.139000000    -1.379000000     0.010000000
H     4.519000000    -1.016000000     0.643000000
H     5.057000000    -0.813000000    -0.758000000
O     1.953000000     0.682000000     3.958000000
H     1.145000000     1.087000000     3.643000000
H     2.339000000     0.280000000     3.179000000
O    -2.943000000     4.312000000     0.167000000
H    -3.599000000     4.996000000     0.306000000
H    -3.008000000     3.757000000     0.943000000
O    -3.499000000    -0.610000000     2.659000000
H    -3.759000000    -1.517000000     2.492000000
H    -3.751000000    -0.453000000     3.569000000
O     5.106000000    -6.163000000     4.098000000
H     4.818000000    -6.583000000     4.909000000
H     4.583000000    -5.363000000     4.045000000
O     0.683000000     3.933000000     3.154000000
H     0.493000000     3.196000000     2.574000000
H     1.638000000     3.977000000     3.181000000
O     7.719000000    -2.198000000     0.505000000
H     6.773000000    -2.048000000     0.509000000
H     8.006000000    -1.891000000    -0.355000000
O     3.975000000     5.668000000     1.771000000
H     4.800000000     6.006000000     2.120000000
H     3.641000000     5.096000000     2.462000000
