158
-3021.06949
C     0.889000000     0.504000000     1.022000000
H     1.600000000     0.827000000     1.778000000
C     0.058000000     1.324000000     0.317000000
H     0.049000000     2.407000000     0.416000000
C    -0.733000000     0.736000000    -0.672000000
H    -1.453000000     1.303000000    -1.284000000
C    -0.815000000    -0.640000000    -0.797000000
H    -1.389000000    -1.168000000    -1.554000000
C     0.008000000    -1.440000000    -0.060000000
H     0.018000000    -2.520000000    -0.191000000
C     0.965000000    -0.882000000     0.771000000
C     1.885000000    -1.787000000     1.571000000
O     2.736000000    -1.341000000     2.363000000
O     1.938000000    -2.926000000     1.319000000
O     4.251000000    -4.932000000     1.661000000
H     3.743000000    -4.231000000     2.070000000
H     4.638000000    -5.408000000     2.395000000
O     0.120000000     5.291000000     4.286000000
H    -0.357000000     4.462000000     4.269000000
H     0.719000000     5.238000000     3.541000000
O    -7.004000000     3.036000000    -1.971000000
H    -7.243000000     3.815000000    -2.473000000
H    -7.087000000     2.315000000    -2.596000000
O     2.510000000     3.407000000    -0.374000000
H     2.864000000     2.546000000    -0.596000000
H     3.221000000     4.016000000    -0.571000000
O     0.422000000     2.799000000    -3.926000000
H     0.524000000     1.989000000    -4.426000000
H    -0.039000000     2.533000000    -3.131000000
O     3.357000000     1.012000000    -1.275000000
H     2.879000000     0.186000000    -1.359000000
H     4.271000000     0.750000000    -1.171000000
O    -2.529000000     2.902000000    -5.131000000
H    -2.910000000     2.713000000    -4.274000000
H    -1.585000000     2.928000000    -4.974000000
O     0.708000000     0.462000000    -5.202000000
H     0.762000000     0.295000000    -6.143000000
H    -0.199000000     0.257000000    -4.974000000
O     3.831000000    -3.567000000    -3.122000000
H     3.139000000    -3.882000000    -2.541000000
H     4.602000000    -3.496000000    -2.560000000
O     2.041000000    -1.267000000    -3.317000000
H     1.567000000    -1.024000000    -4.113000000
H     2.823000000    -1.721000000    -3.632000000
O     6.582000000    -4.561000000     0.283000000
H     5.701000000    -4.760000000     0.599000000
H     7.119000000    -5.291000000     0.594000000
O    -4.839000000     0.258000000    -4.476000000
H    -5.551000000     0.820000000    -4.779000000
H    -5.279000000    -0.477000000    -4.047000000
O    -3.433000000    -2.732000000    -1.466000000
H    -4.239000000    -2.254000000    -1.662000000
H    -2.992000000    -2.813000000    -2.311000000
O     5.800000000     2.597000000     1.677000000
H     5.764000000     1.661000000     1.875000000
H     6.124000000     2.640000000     0.777000000
O     1.303000000     5.042000000     1.792000000
H     1.616000000     5.852000000     1.390000000
H     1.655000000     4.347000000     1.236000000
O     0.061000000    -4.928000000     1.800000000
H     0.626000000    -5.663000000     2.039000000
H     0.648000000    -4.303000000     1.375000000
O     1.305000000    -7.399000000     2.331000000
H     1.371000000    -8.046000000     1.629000000
H     2.151000000    -7.443000000     2.776000000
O     4.285000000     4.590000000     2.768000000
H     4.836000000     4.074000000     2.179000000
H     3.556000000     4.008000000     2.984000000
O    -3.744000000     3.725000000    -2.692000000
H    -3.638000000     4.657000000    -2.879000000
H    -4.681000000     3.563000000    -2.804000000
O    -2.059000000    -2.894000000    -4.019000000
H    -2.378000000    -3.679000000    -4.464000000
H    -1.323000000    -3.201000000    -3.490000000
O     2.247000000    -3.725000000     3.898000000
H     2.298000000    -3.310000000     3.036000000
H     2.400000000    -3.011000000     4.517000000
O     1.623000000     5.399000000    -4.961000000
H     1.948000000     5.239000000    -5.847000000
H     1.075000000     4.639000000    -4.766000000
O    -3.563000000     1.581000000     3.293000000
H    -4.451000000     1.620000000     3.647000000
H    -3.428000000     2.438000000     2.889000000
O     4.932000000    -2.362000000     5.932000000
H     4.748000000    -1.539000000     5.480000000
H     4.484000000    -2.279000000     6.773000000
O    -4.548000000    -4.558000000    -0.040000000
H    -4.658000000    -5.287000000    -0.650000000
H    -4.134000000    -3.870000000    -0.560000000
O    -6.866000000    -1.008000000    -3.026000000
H    -6.602000000    -0.769000000    -2.138000000
H    -7.766000000    -1.320000000    -2.933000000
O    -2.752000000     4.239000000     2.233000000
H    -1.883000000     4.629000000     2.329000000
H    -3.201000000     4.804000000     1.605000000
O    -3.143000000    -0.253000000     1.261000000
H    -2.344000000     0.102000000     0.871000000
H    -3.386000000     0.386000000     1.931000000
O    -3.498000000    -2.078000000     3.605000000
H    -3.469000000    -1.579000000     2.789000000
H    -2.773000000    -2.699000000     3.532000000
O     1.458000000    -0.146000000     4.652000000
H     1.838000000    -0.282000000     3.784000000
H     0.530000000     0.017000000     4.485000000
O    -5.691000000    -0.494000000    -0.321000000
H    -5.767000000    -0.655000000     0.619000000
H    -4.776000000    -0.245000000    -0.448000000
O     0.542000000     4.909000000    -1.504000000
H    -0.313000000     5.089000000    -1.113000000
H     0.869000000     4.148000000    -1.024000000
O     0.892000000    -0.876000000     7.716000000
H     1.257000000    -0.708000000     6.847000000
H     1.016000000    -0.055000000     8.191000000
O    -5.823000000     3.251000000     0.640000000
H    -4.901000000     3.506000000     0.665000000
H    -6.144000000     3.593000000    -0.194000000
O    -3.739000000     1.289000000    -7.166000000
H    -3.991000000     0.442000000    -6.798000000
H    -3.094000000     1.636000000    -6.549000000
O     0.367000000    -3.310000000    -2.941000000
H     0.836000000    -2.503000000    -2.730000000
H     0.776000000    -3.977000000    -2.390000000
O     2.074000000    -4.384000000    -1.263000000
H     2.585000000    -5.180000000    -1.120000000
H     2.226000000    -3.858000000    -0.477000000
O     7.859000000    -0.306000000     4.125000000
H     7.134000000    -0.782000000     3.718000000
H     7.774000000    -0.493000000     5.059000000
O    -2.271000000    -6.700000000    -0.385000000
H    -1.983000000    -6.347000000     0.456000000
H    -3.216000000    -6.548000000    -0.399000000
O     4.061000000     0.287000000     5.841000000
H     3.190000000     0.359000000     5.449000000
H     4.241000000     1.161000000     6.185000000
O     3.038000000     2.637000000    -3.403000000
H     2.131000000     2.923000000    -3.505000000
H     3.029000000     2.084000000    -2.622000000
O    -0.886000000    -3.567000000     3.959000000
H     0.007000000    -3.543000000     4.303000000
H    -0.824000000    -4.107000000     3.171000000
O     3.876000000    -6.318000000    -0.766000000
H     4.157000000    -7.226000000    -0.650000000
H     4.033000000    -5.908000000     0.085000000
O     5.660000000    -0.737000000     2.295000000
H     4.733000000    -0.972000000     2.243000000
H     5.873000000    -0.408000000     1.422000000
O    -0.611000000     2.615000000     4.561000000
H    -0.584000000     1.729000000     4.201000000
H    -0.808000000     2.492000000     5.489000000
O    -2.039000000    -0.149000000    -4.673000000
H    -1.995000000    -1.042000000    -4.333000000
H    -2.974000000     0.059000000    -4.678000000
O    -3.475000000     5.579000000     0.081000000
H    -3.681000000     5.615000000    -0.853000000
H    -3.005000000     6.394000000     0.255000000
O    -1.146000000    -0.074000000     3.948000000
H    -1.993000000     0.373000000     3.957000000
H    -1.328000000    -0.923000000     3.544000000
