158
-3061.47720
C     1.398000000     0.479000000     0.098000000
H     2.436000000     0.794000000     0.174000000
C     0.286000000     1.308000000    -0.111000000
H     0.351000000     2.385000000    -0.241000000
C    -0.968000000     0.647000000    -0.362000000
H    -1.862000000     1.211000000    -0.663000000
C    -1.133000000    -0.684000000    -0.244000000
H    -2.099000000    -1.160000000    -0.392000000
C    -0.057000000    -1.462000000     0.170000000
H    -0.211000000    -2.508000000     0.423000000
C     1.178000000    -0.852000000     0.383000000
C     2.388000000    -1.673000000     0.876000000
O     3.174000000    -1.154000000     1.658000000
O     2.457000000    -2.891000000     0.660000000
O     1.969000000     5.107000000     2.935000000
H     1.750000000     5.955000000     3.322000000
H     2.836000000     5.236000000     2.551000000
O     5.353000000    -0.365000000     0.063000000
H     4.654000000    -0.449000000     0.712000000
H     5.550000000     0.571000000     0.043000000
O    -4.636000000     1.306000000    -2.066000000
H    -4.667000000     1.102000000    -1.131000000
H    -3.832000000     1.813000000    -2.174000000
O     0.630000000     3.432000000    -3.320000000
H     1.473000000     3.052000000    -3.072000000
H     0.725000000     4.366000000    -3.136000000
O     4.576000000     3.243000000     1.432000000
H     4.130000000     3.724000000     0.735000000
H     4.834000000     3.917000000     2.060000000
O     3.847000000    -0.759000000    -2.290000000
H     4.349000000    -0.996000000    -3.070000000
H     4.499000000    -0.705000000    -1.592000000
O     1.075000000     6.033000000    -2.597000000
H     1.613000000     6.824000000    -2.633000000
H     0.283000000     6.303000000    -2.133000000
O     5.897000000    -3.496000000     3.997000000
H     6.749000000    -3.846000000     3.737000000
H     5.704000000    -3.928000000     4.830000000
O     3.158000000     4.327000000    -0.672000000
H     2.491000000     4.489000000    -1.340000000
H     3.799000000     5.027000000    -0.800000000
O    -3.076000000     0.897000000    -5.987000000
H    -2.738000000     0.114000000    -5.552000000
H    -2.342000000     1.512000000    -5.976000000
O     7.757000000     0.081000000     3.536000000
H     7.540000000     1.005000000     3.411000000
H     6.908000000    -0.360000000     3.582000000
O     5.428000000     3.689000000    -2.659000000
H     4.493000000     3.639000000    -2.856000000
H     5.833000000     3.061000000    -3.256000000
O    -2.235000000     2.538000000    -2.468000000
H    -2.130000000     2.841000000    -1.567000000
H    -1.937000000     3.273000000    -3.005000000
O    -2.213000000    -1.093000000    -4.117000000
H    -1.664000000    -0.379000000    -3.793000000
H    -3.061000000    -0.952000000    -3.697000000
O     0.128000000     0.508000000    -3.349000000
H    -0.326000000     1.349000000    -3.296000000
H     0.256000000     0.247000000    -2.437000000
O     3.751000000    -4.272000000     2.501000000
H     4.521000000    -3.836000000     2.866000000
H     3.338000000    -3.606000000     1.950000000
O    -4.262000000    -3.836000000     1.968000000
H    -5.006000000    -4.352000000     1.658000000
H    -3.685000000    -3.765000000     1.208000000
O     4.255000000     0.548000000     5.982000000
H     4.363000000     0.097000000     5.145000000
H     3.455000000     0.176000000     6.354000000
O     2.573000000     2.388000000     3.320000000
H     3.151000000     2.494000000     2.565000000
H     2.027000000     3.174000000     3.317000000
O    -1.282000000     6.549000000    -0.640000000
H    -1.948000000     7.049000000    -0.168000000
H    -0.805000000     6.079000000     0.044000000
O    -1.293000000    -3.291000000    -2.476000000
H    -0.389000000    -2.982000000    -2.404000000
H    -1.689000000    -2.719000000    -3.133000000
O     2.968000000     2.173000000    -2.935000000
H     2.873000000     1.464000000    -2.300000000
H     3.299000000     1.744000000    -3.725000000
O    -0.836000000     0.952000000     2.761000000
H    -1.117000000     0.577000000     1.926000000
H    -0.063000000     0.443000000     3.004000000
O     5.452000000    -5.198000000    -3.398000000
H     6.328000000    -5.535000000    -3.211000000
H     5.196000000    -4.739000000    -2.598000000
O    -0.189000000     4.549000000     1.293000000
H     0.417000000     4.978000000     1.897000000
H     0.229000000     3.712000000     1.090000000
O    -5.194000000     0.617000000     0.669000000
H    -5.893000000     0.014000000     0.413000000
H    -4.938000000     0.329000000     1.545000000
O     1.510000000    -5.381000000    -0.032000000
H     1.747000000    -4.500000000     0.257000000
H     0.897000000    -5.240000000    -0.754000000
O    -5.252000000    -1.426000000     2.747000000
H    -6.131000000    -1.317000000     2.384000000
H    -4.882000000    -2.163000000     2.262000000
O     5.097000000    -0.882000000     3.564000000
H     4.493000000    -0.882000000     2.821000000
H     5.155000000    -1.801000000     3.825000000
O    -3.103000000    -3.815000000    -0.492000000
H    -2.999000000    -4.759000000    -0.371000000
H    -2.402000000    -3.572000000    -1.097000000
O    -0.844000000     2.432000000    -5.569000000
H    -0.778000000     3.322000000    -5.915000000
H    -0.015000000     2.292000000    -5.111000000
O     6.727000000     2.266000000    -0.504000000
H     6.237000000     2.808000000    -1.123000000
H     6.342000000     2.468000000     0.349000000
O    -2.765000000    -4.648000000     4.202000000
H    -3.120000000    -4.185000000     3.444000000
H    -1.984000000    -4.150000000     4.443000000
O     1.325000000    -2.052000000    -2.862000000
H     1.002000000    -1.304000000    -3.364000000
H     2.113000000    -1.727000000    -2.428000000
O    -4.883000000    -1.365000000    -3.354000000
H    -5.384000000    -2.129000000    -3.071000000
H    -5.340000000    -0.620000000    -2.962000000
O    -5.525000000     3.748000000     0.513000000
H    -5.685000000     2.804000000     0.488000000
H    -6.393000000     4.135000000     0.631000000
O    -1.875000000     5.387000000    -3.155000000
H    -0.944000000     5.180000000    -3.228000000
H    -1.964000000     5.792000000    -2.292000000
O    -0.779000000    -4.472000000     1.922000000
H    -0.898000000    -5.403000000     2.109000000
H     0.063000000    -4.425000000     1.469000000
O     6.671000000    -2.821000000     0.208000000
H     5.944000000    -3.285000000    -0.207000000
H     6.292000000    -1.989000000     0.492000000
O     1.614000000    -0.055000000     3.538000000
H     2.190000000    -0.457000000     2.888000000
H     1.995000000     0.809000000     3.694000000
O    -2.636000000     3.790000000     0.095000000
H    -1.916000000     4.162000000     0.604000000
H    -3.387000000     3.817000000     0.687000000
O     4.648000000    -4.125000000    -1.007000000
H     3.972000000    -3.474000000    -0.818000000
H     4.339000000    -4.923000000    -0.579000000
O    -0.413000000    -2.610000000     3.920000000
H     0.218000000    -1.925000000     3.699000000
H    -0.422000000    -3.184000000     3.154000000
O     4.001000000    -6.834000000    -0.046000000
H     3.153000000    -6.413000000    -0.186000000
H     4.119000000    -6.823000000     0.904000000
O     3.769000000    -6.956000000     2.985000000
H     3.009000000    -7.115000000     3.544000000
H     3.788000000    -6.006000000     2.871000000
O    -5.895000000     3.243000000    -3.878000000
H    -6.600000000     3.636000000    -3.364000000
H    -5.367000000     2.767000000    -3.237000000
O    -2.906000000     1.611000000     4.280000000
H    -2.905000000     2.525000000     4.565000000
H    -2.163000000     1.546000000     3.680000000
O     0.388000000    -7.217000000     2.094000000
H     0.932000000    -6.797000000     1.428000000
H    -0.086000000    -7.901000000     1.620000000
