158
-3012.24633
C     1.015000000     0.675000000     0.823000000
H     1.841000000     1.224000000     1.268000000
C     0.154000000     1.341000000    -0.044000000
H     0.290000000     2.417000000    -0.113000000
C    -0.786000000     0.576000000    -0.741000000
H    -1.524000000     1.124000000    -1.364000000
C    -0.897000000    -0.741000000    -0.566000000
H    -1.577000000    -1.401000000    -1.098000000
C    -0.006000000    -1.445000000     0.303000000
H    -0.221000000    -2.511000000     0.297000000
C     1.024000000    -0.710000000     0.988000000
C     2.093000000    -1.378000000     1.795000000
O     3.157000000    -0.812000000     1.946000000
O     2.008000000    -2.597000000     1.986000000
O     6.791000000     1.227000000     0.929000000
H     7.026000000     0.617000000     0.229000000
H     6.411000000     1.979000000     0.475000000
O    -4.355000000     0.935000000     1.648000000
H    -4.758000000     0.525000000     2.413000000
H    -3.416000000     0.794000000     1.768000000
O     6.224000000     0.908000000     5.144000000
H     5.459000000     0.938000000     4.569000000
H     6.895000000     1.406000000     4.676000000
O     0.079000000     2.220000000    -4.527000000
H     0.841000000     2.671000000    -4.891000000
H     0.362000000     1.310000000    -4.432000000
O     3.549000000     2.217000000    -0.841000000
H     3.027000000     3.019000000    -0.809000000
H     4.437000000     2.500000000    -0.623000000
O     1.877000000    -2.278000000    -2.579000000
H     1.886000000    -1.321000000    -2.554000000
H     1.697000000    -2.539000000    -1.677000000
O     5.119000000    -0.139000000    -1.363000000
H     5.452000000     0.205000000    -2.192000000
H     4.490000000     0.518000000    -1.066000000
O    -0.567000000     5.270000000    -1.226000000
H    -0.720000000     6.202000000    -1.383000000
H    -1.095000000     5.068000000    -0.454000000
O     4.220000000     5.008000000    -2.776000000
H     3.832000000     4.926000000    -1.905000000
H     4.204000000     5.947000000    -2.958000000
O     2.231000000     4.849000000    -0.663000000
H     1.594000000     4.924000000    -1.374000000
H     1.783000000     5.213000000     0.100000000
O    -1.827000000     3.584000000    -3.165000000
H    -1.250000000     3.691000000    -2.409000000
H    -1.377000000     2.948000000    -3.722000000
O    -1.445000000    -6.841000000    -2.784000000
H    -0.719000000    -6.457000000    -2.293000000
H    -1.138000000    -6.860000000    -3.690000000
O     2.027000000     0.389000000    -2.660000000
H     2.062000000     0.748000000    -1.773000000
H     2.409000000     1.073000000    -3.210000000
O    -0.168000000    -5.136000000     4.066000000
H    -0.938000000    -4.590000000     3.905000000
H    -0.405000000    -5.667000000     4.826000000
O    -1.833000000     4.707000000     0.993000000
H    -2.509000000     4.162000000     1.396000000
H    -1.412000000     5.150000000     1.729000000
O    -1.657000000    -3.720000000    -2.693000000
H    -1.619000000    -2.798000000    -2.946000000
H    -0.910000000    -4.121000000    -3.138000000
O    -2.558000000    -1.219000000    -4.244000000
H    -3.015000000    -0.718000000    -4.920000000
H    -1.638000000    -1.194000000    -4.508000000
O     2.052000000    -3.683000000     4.212000000
H     1.337000000    -4.292000000     4.395000000
H     1.839000000    -3.314000000     3.355000000
O    -0.001000000    -1.732000000    -5.183000000
H     0.143000000    -1.356000000    -6.051000000
H     0.753000000    -1.444000000    -4.669000000
O    -3.037000000    -4.717000000     2.593000000
H    -3.142000000    -5.435000000     3.217000000
H    -2.572000000    -5.109000000     1.854000000
O     1.575000000    -2.363000000     6.617000000
H     1.599000000    -2.747000000     5.740000000
H     1.268000000    -3.073000000     7.181000000
O     4.583000000     1.603000000     2.920000000
H     5.279000000     1.656000000     2.265000000
H     3.995000000     0.924000000     2.590000000
O    -6.221000000    -1.690000000    -3.040000000
H    -5.696000000    -0.890000000    -3.015000000
H    -5.799000000    -2.272000000    -2.408000000
O    -2.218000000     5.352000000    -5.056000000
H    -2.296000000     6.187000000    -4.594000000
H    -2.032000000     4.713000000    -4.368000000
O     1.243000000    -4.719000000     0.444000000
H     1.439000000    -3.901000000     0.900000000
H     1.808000000    -5.368000000     0.864000000
O    -1.743000000     0.736000000     2.356000000
H    -1.851000000    -0.212000000     2.436000000
H    -1.124000000     0.845000000     1.634000000
O     3.991000000    -4.463000000     1.885000000
H     3.498000000    -3.643000000     1.884000000
H     4.482000000    -4.447000000     2.706000000
O     5.467000000    -2.116000000     6.519000000
H     5.075000000    -1.952000000     5.662000000
H     6.321000000    -1.686000000     6.478000000
O     3.452000000     4.184000000     3.324000000
H     4.062000000     3.533000000     2.976000000
H     3.826000000     5.026000000     3.063000000
O    -4.680000000     3.488000000    -0.248000000
H    -5.585000000     3.620000000     0.036000000
H    -4.215000000     3.230000000     0.548000000
O    -3.728000000     6.910000000    -0.845000000
H    -3.051000000     6.245000000    -0.968000000
H    -4.023000000     6.787000000     0.057000000
O     7.655000000    -2.837000000     4.121000000
H     6.709000000    -2.856000000     4.265000000
H     7.751000000    -2.681000000     3.182000000
O     4.675000000    -5.442000000    -0.665000000
H     4.405000000    -6.157000000    -0.089000000
H     4.493000000    -4.648000000    -0.163000000
O     4.375000000    -2.508000000     3.946000000
H     4.129000000    -1.912000000     3.239000000
H     3.580000000    -3.013000000     4.120000000
O    -1.329000000    -5.073000000    -0.029000000
H    -0.390000000    -5.026000000     0.154000000
H    -1.422000000    -4.692000000    -0.902000000
O     1.520000000    -6.728000000    -2.035000000
H     1.621000000    -6.025000000    -1.393000000
H     2.281000000    -6.641000000    -2.608000000
O    -3.880000000     0.271000000    -6.218000000
H    -4.548000000     0.898000000    -5.941000000
H    -3.115000000     0.809000000    -6.420000000
O    -1.685000000     1.505000000    -6.925000000
H    -2.191000000     2.309000000    -7.041000000
H    -0.856000000     1.796000000    -6.546000000
O     0.637000000    -4.216000000    -4.380000000
H     1.414000000    -3.790000000    -4.018000000
H     0.201000000    -3.531000000    -4.887000000
O    -5.698000000     0.543000000    -0.699000000
H    -5.224000000     0.453000000     0.128000000
H    -5.338000000     1.337000000    -1.095000000
O    -3.788000000     3.563000000     2.639000000
H    -3.309000000     3.389000000     3.449000000
H    -4.170000000     2.718000000     2.400000000
O     5.225000000    -1.828000000     0.518000000
H     4.503000000    -1.449000000     1.019000000
H     5.294000000    -1.273000000    -0.259000000
O    -0.679000000     0.313000000     5.303000000
H    -0.382000000     1.098000000     5.763000000
H    -0.386000000     0.439000000     4.401000000
O    -4.662000000    -4.381000000    -2.134000000
H    -3.725000000    -4.432000000    -1.945000000
H    -4.717000000    -4.439000000    -3.088000000
O    -4.805000000     3.774000000    -3.017000000
H    -4.999000000     3.413000000    -2.152000000
H    -3.853000000     3.875000000    -3.026000000
O    -2.604000000    -1.792000000     2.955000000
H    -2.852000000    -2.559000000     2.439000000
H    -2.462000000    -2.133000000     3.838000000
O    -0.001000000    -7.566000000     2.830000000
H     0.119000000    -6.686000000     3.187000000
H    -0.935000000    -7.615000000     2.625000000
O     7.721000000    -2.938000000     1.084000000
H     6.896000000    -2.563000000     0.776000000
H     8.155000000    -3.245000000     0.288000000
