158
-3008.59037
C    -0.645000000     0.996000000     0.840000000
H    -1.258000000     1.727000000     1.361000000
C    -0.335000000     1.208000000    -0.502000000
H    -0.642000000     2.078000000    -1.076000000
C     0.304000000     0.152000000    -1.170000000
H     0.601000000     0.241000000    -2.183000000
C     0.649000000    -1.076000000    -0.528000000
H     1.150000000    -1.882000000    -1.059000000
C     0.329000000    -1.214000000     0.848000000
H     0.497000000    -2.166000000     1.345000000
C    -0.280000000    -0.185000000     1.504000000
C    -0.553000000    -0.319000000     2.950000000
O    -1.092000000     0.609000000     3.519000000
O    -0.511000000    -1.402000000     3.532000000
O     3.927000000    -0.759000000    -5.511000000
H     4.366000000    -0.540000000    -4.689000000
H     3.667000000    -1.675000000    -5.407000000
O    -3.692000000    -3.549000000     3.273000000
H    -3.464000000    -3.138000000     2.439000000
H    -4.201000000    -4.321000000     3.027000000
O    -4.847000000     1.293000000     1.552000000
H    -4.282000000     1.624000000     0.854000000
H    -4.254000000     1.138000000     2.287000000
O     2.489000000     1.320000000    -6.568000000
H     3.021000000     0.664000000    -6.117000000
H     2.384000000     2.024000000    -5.929000000
O    -0.719000000    -5.694000000     2.495000000
H    -1.528000000    -5.182000000     2.477000000
H    -1.005000000    -6.587000000     2.686000000
O     3.450000000    -2.321000000    -2.596000000
H     2.673000000    -1.778000000    -2.735000000
H     3.465000000    -2.913000000    -3.348000000
O    -3.578000000     2.219000000    -4.216000000
H    -3.007000000     2.631000000    -3.568000000
H    -2.979000000     1.782000000    -4.821000000
O    -0.612000000    -0.134000000    -5.902000000
H    -0.899000000     0.637000000    -6.391000000
H     0.096000000    -0.504000000    -6.430000000
O     3.885000000     0.555000000     3.290000000
H     3.701000000     1.495000000     3.284000000
H     4.395000000     0.415000000     4.087000000
O    -1.861000000     3.848000000    -3.064000000
H    -1.396000000     4.682000000    -3.004000000
H    -1.169000000     3.187000000    -3.072000000
O     1.562000000    -0.751000000     8.522000000
H     0.924000000    -0.594000000     9.218000000
H     1.031000000    -0.905000000     7.740000000
O     3.058000000     3.152000000     2.348000000
H     2.719000000     2.721000000     1.563000000
H     3.766000000     3.711000000     2.027000000
O     4.460000000    -0.523000000    -0.693000000
H     3.964000000     0.234000000    -1.004000000
H     4.310000000    -1.197000000    -1.355000000
O     1.662000000    -1.396000000     5.326000000
H     1.311000000    -0.535000000     5.099000000
H     1.605000000    -1.900000000     4.514000000
O    -2.306000000     3.611000000     6.350000000
H    -2.589000000     4.438000000     6.740000000
H    -2.439000000     2.962000000     7.041000000
O    -0.294000000     5.567000000     1.423000000
H    -0.868000000     6.311000000     1.240000000
H    -0.733000000     5.094000000     2.130000000
O    -2.970000000    -4.792000000     5.772000000
H    -3.802000000    -5.265000000     5.760000000
H    -2.944000000    -4.332000000     4.933000000
O    -0.046000000     2.052000000    -4.304000000
H     0.880000000     2.289000000    -4.362000000
H    -0.094000000     1.178000000    -4.691000000
O     2.629000000     3.278000000    -4.704000000
H     3.186000000     3.931000000    -5.128000000
H     2.609000000     3.541000000    -3.784000000
O    -2.356000000    -1.788000000     5.359000000
H    -1.522000000    -1.494000000     4.994000000
H    -2.808000000    -2.199000000     4.622000000
O     2.440000000     3.565000000    -1.858000000
H     2.737000000     3.151000000    -1.047000000
H     1.859000000     4.268000000    -1.568000000
O    -0.206000000    -5.048000000     6.289000000
H     0.038000000    -4.782000000     5.402000000
H    -1.145000000    -4.872000000     6.342000000
O     1.183000000    -2.028000000    -3.776000000
H     0.254000000    -2.256000000    -3.784000000
H     1.609000000    -2.739000000    -4.254000000
O    -1.413000000    -2.051000000    -4.363000000
H    -2.159000000    -1.733000000    -3.855000000
H    -1.105000000    -1.283000000    -4.844000000
O     1.822000000    -5.293000000     1.145000000
H     0.950000000    -5.188000000     1.526000000
H     1.748000000    -4.915000000     0.269000000
O    -3.365000000    -2.889000000     7.825000000
H    -2.729000000    -2.331000000     7.377000000
H    -3.536000000    -3.600000000     7.209000000
O    -5.209000000    -1.386000000     0.034000000
H    -4.262000000    -1.374000000    -0.104000000
H    -5.439000000    -2.316000000     0.031000000
O     1.928000000     5.894000000    -0.309000000
H     1.871000000     6.802000000    -0.606000000
H     1.114000000     5.749000000     0.173000000
O     5.864000000     0.377000000    -3.478000000
H     6.716000000     0.341000000    -3.044000000
H     5.673000000     1.312000000    -3.556000000
O    -2.257000000     1.210000000     7.367000000
H    -2.036000000     0.932000000     8.256000000
H    -3.020000000     0.681000000     7.133000000
O     1.317000000    -4.432000000    -1.508000000
H     1.608000000    -5.236000000    -1.939000000
H     1.728000000    -3.729000000    -2.011000000
O    -0.085000000     1.584000000     5.622000000
H    -0.388000000     1.198000000     4.800000000
H    -0.886000000     1.751000000     6.119000000
O     5.107000000     3.130000000    -2.947000000
H     5.608000000     3.672000000    -2.337000000
H     4.192000000     3.330000000    -2.749000000
O     4.745000000    -4.936000000     1.991000000
H     3.831000000    -4.691000000     1.848000000
H     4.877000000    -5.703000000     1.433000000
O    -1.410000000     4.693000000     4.144000000
H    -0.570000000     4.254000000     4.011000000
H    -1.900000000     4.105000000     4.720000000
O    -3.258000000    -1.989000000    -6.488000000
H    -2.564000000    -1.971000000    -5.829000000
H    -3.668000000    -1.127000000    -6.428000000
O     0.901000000    -3.714000000     4.011000000
H     0.267000000    -2.997000000     4.007000000
H     1.261000000    -3.720000000     3.124000000
O     1.074000000     3.734000000     3.938000000
H     1.195000000     2.943000000     4.463000000
H     1.632000000     3.601000000     3.172000000
O     3.211000000    -1.922000000     2.207000000
H     3.474000000    -1.271000000     2.857000000
H     3.586000000    -1.605000000     1.385000000
O     2.628000000     1.546000000    -0.016000000
H     2.937000000     0.874000000     0.591000000
H     2.034000000     1.081000000    -0.606000000
O    -3.617000000    -0.700000000    -3.358000000
H    -3.788000000     0.002000000    -2.730000000
H    -4.479000000    -1.075000000    -3.539000000
O    -4.220000000     2.459000000    -1.072000000
H    -3.370000000     2.561000000    -1.501000000
H    -4.639000000     3.315000000    -1.164000000
O    -2.956000000     4.805000000    -5.370000000
H    -3.560000000     4.462000000    -6.029000000
H    -2.865000000     4.094000000    -4.736000000
O     2.482000000     1.921000000     6.122000000
H     1.549000000     1.717000000     6.186000000
H     2.604000000     2.670000000     6.706000000
O    -2.674000000    -1.012000000    -0.719000000
H    -1.814000000    -0.636000000    -0.531000000
H    -2.548000000    -1.502000000    -1.532000000
O    -4.374000000    -0.079000000     6.135000000
H    -4.615000000    -0.014000000     5.211000000
H    -3.793000000    -0.839000000     6.178000000
O    -3.252000000     1.938000000     3.993000000
H    -2.459000000     1.417000000     3.862000000
H    -3.114000000     2.378000000     4.831000000
O    -1.275000000    -3.735000000    -1.526000000
H    -0.367000000    -3.982000000    -1.350000000
H    -1.699000000    -3.756000000    -0.668000000
