158
-3013.39554
C     0.285000000     0.659000000     1.319000000
H     0.424000000     1.226000000     2.236000000
C    -0.165000000     1.265000000     0.163000000
H    -0.418000000     2.322000000     0.124000000
C    -0.358000000     0.556000000    -1.007000000
H    -0.720000000     1.054000000    -1.942000000
C    -0.193000000    -0.841000000    -1.011000000
H    -0.275000000    -1.422000000    -1.926000000
C     0.174000000    -1.454000000     0.164000000
H     0.115000000    -2.539000000     0.197000000
C     0.506000000    -0.711000000     1.307000000
C     0.891000000    -1.379000000     2.617000000
O     1.471000000    -0.776000000     3.436000000
O     0.603000000    -2.554000000     2.773000000
O     2.333000000     2.702000000     5.982000000
H     2.858000000     2.287000000     5.297000000
H     1.862000000     3.403000000     5.531000000
O    -2.004000000    -5.922000000     0.836000000
H    -1.897000000    -5.298000000     1.554000000
H    -1.497000000    -6.687000000     1.107000000
O    -3.195000000     0.548000000     3.176000000
H    -2.954000000     0.440000000     2.255000000
H    -2.424000000     0.253000000     3.661000000
O    -1.417000000    -1.253000000    -4.311000000
H    -0.525000000    -0.963000000    -4.118000000
H    -1.386000000    -1.526000000    -5.228000000
O    -1.966000000     6.038000000    -2.650000000
H    -1.256000000     5.867000000    -2.032000000
H    -1.912000000     6.978000000    -2.823000000
O     1.243000000    -0.484000000    -7.032000000
H     0.288000000    -0.521000000    -7.074000000
H     1.535000000    -1.258000000    -7.513000000
O     4.324000000    -1.946000000     2.728000000
H     3.867000000    -2.096000000     1.900000000
H     3.627000000    -1.754000000     3.355000000
O     1.049000000    -0.019000000    -4.019000000
H     1.478000000     0.749000000    -3.641000000
H     1.369000000    -0.053000000    -4.921000000
O     1.575000000     4.129000000    -4.548000000
H     1.213000000     3.583000000    -5.246000000
H     1.499000000     3.591000000    -3.759000000
O     4.032000000     1.672000000     1.218000000
H     3.582000000     1.177000000     0.533000000
H     4.612000000     2.267000000     0.741000000
O     4.033000000    -2.264000000    -0.159000000
H     4.813000000    -2.315000000    -0.711000000
H     3.778000000    -3.176000000    -0.019000000
O    -4.176000000    -0.727000000    -4.041000000
H    -4.188000000     0.220000000    -3.903000000
H    -3.260000000    -0.975000000    -3.923000000
O    -2.666000000     6.125000000     0.221000000
H    -1.795000000     6.030000000     0.608000000
H    -2.934000000     7.015000000     0.448000000
O     0.865000000     4.364000000     4.655000000
H     0.838000000     5.238000000     5.044000000
H     0.057000000     3.945000000     4.950000000
O     1.945000000    -3.887000000    -4.683000000
H     1.030000000    -4.028000000    -4.925000000
H     2.418000000    -3.901000000    -5.515000000
O     3.191000000    -1.798000000    -3.386000000
H     2.690000000    -2.484000000    -3.827000000
H     2.575000000    -1.071000000    -3.299000000
O    -1.647000000    -3.791000000     2.914000000
H    -0.796000000    -3.373000000     2.778000000
H    -2.247000000    -3.064000000     3.079000000
O     1.734000000     2.541000000    -2.013000000
H     2.500000000     1.973000000    -1.925000000
H     1.061000000     2.118000000    -1.479000000
O     0.496000000    -6.778000000     5.579000000
H    -0.283000000    -6.234000000     5.460000000
H     0.789000000    -6.586000000     6.470000000
O     2.593000000     6.386000000    -3.367000000
H     3.351000000     6.505000000    -3.940000000
H     2.228000000     5.540000000    -3.626000000
O     3.544000000    -4.638000000    -2.382000000
H     3.393000000    -4.054000000    -3.126000000
H     2.669000000    -4.816000000    -2.037000000
O    -0.778000000    -4.302000000    -5.042000000
H    -1.530000000    -4.088000000    -4.489000000
H    -1.093000000    -4.168000000    -5.936000000
O    -3.694000000     1.954000000    -4.540000000
H    -3.938000000     2.653000000    -3.934000000
H    -3.973000000     2.273000000    -5.399000000
O    -1.380000000    -1.343000000    -7.243000000
H    -2.035000000    -1.932000000    -6.869000000
H    -1.567000000    -1.342000000    -8.182000000
O    -3.900000000    -2.342000000     3.924000000
H    -4.662000000    -2.789000000     3.555000000
H    -3.961000000    -1.448000000     3.587000000
O    -3.268000000     3.284000000    -0.696000000
H    -3.271000000     4.211000000    -0.458000000
H    -4.000000000     3.190000000    -1.305000000
O    -1.545000000    -5.111000000     5.216000000
H    -1.634000000    -4.618000000     4.400000000
H    -2.126000000    -5.864000000     5.105000000
O     5.344000000     1.796000000     5.520000000
H     4.621000000     1.514000000     4.960000000
H     5.165000000     1.386000000     6.367000000
O    -3.990000000     4.240000000    -3.151000000
H    -3.259000000     4.768000000    -2.830000000
H    -4.586000000     4.875000000    -3.549000000
O    -4.346000000    -4.212000000    -0.209000000
H    -3.669000000    -4.752000000     0.200000000
H    -5.039000000    -4.830000000    -0.439000000
O    -0.284000000     5.832000000     1.354000000
H     0.289000000     6.488000000     0.957000000
H     0.141000000     4.996000000     1.164000000
O    -0.960000000     5.535000000    -5.317000000
H    -0.770000000     4.597000000    -5.347000000
H    -1.337000000     5.675000000    -4.448000000
O     2.344000000    -2.706000000     5.103000000
H     2.097000000    -3.468000000     4.579000000
H     1.722000000    -2.025000000     4.845000000
O     4.616000000    -5.891000000     2.786000000
H     3.860000000    -5.333000000     2.970000000
H     4.841000000    -5.698000000     1.876000000
O     2.382000000     4.305000000     2.288000000
H     2.817000000     3.475000000     2.094000000
H     2.034000000     4.192000000     3.173000000
O    -1.404000000     2.948000000     4.743000000
H    -2.349000000     3.102000000     4.746000000
H    -1.313000000     2.015000000     4.939000000
O    -4.841000000    -1.532000000    -0.011000000
H    -4.393000000    -2.372000000    -0.107000000
H    -4.134000000    -0.888000000     0.043000000
O     2.088000000    -4.614000000     2.811000000
H     1.409000000    -3.971000000     2.609000000
H     1.783000000    -5.422000000     2.399000000
O     3.366000000     1.197000000     3.878000000
H     2.793000000     0.436000000     3.787000000
H     3.590000000     1.437000000     2.979000000
O     2.956000000     0.267000000    -0.694000000
H     3.411000000    -0.481000000    -0.306000000
H     2.097000000    -0.076000000    -0.940000000
O    -2.236000000    -3.268000000    -2.457000000
H    -2.013000000    -2.531000000    -3.025000000
H    -3.101000000    -3.547000000    -2.756000000
O    -3.079000000     0.628000000     0.367000000
H    -2.265000000     0.479000000    -0.115000000
H    -3.221000000     1.573000000     0.310000000
O    -0.807000000     2.851000000    -5.519000000
H    -0.696000000     2.449000000    -6.380000000
H    -1.436000000     2.287000000    -5.070000000
O     0.612000000    -6.390000000    -3.712000000
H     0.524000000    -5.457000000    -3.906000000
H     0.891000000    -6.419000000    -2.797000000
O     3.824000000    -1.463000000     7.032000000
H     3.194000000    -1.901000000     6.459000000
H     3.541000000    -0.549000000     7.043000000
O    -1.946000000    -6.177000000    -2.704000000
H    -2.400000000    -5.358000000    -2.508000000
H    -1.042000000    -5.915000000    -2.875000000
O    -1.234000000    -0.082000000     4.984000000
H    -0.378000000    -0.048000000     4.556000000
H    -1.034000000    -0.239000000     5.907000000
O     1.470000000    -5.502000000    -0.929000000
H     0.698000000    -5.174000000    -0.466000000
H     1.614000000    -6.376000000    -0.565000000
