158
-3029.77109
C     1.019000000     0.424000000    -0.998000000
H     1.866000000     0.685000000    -1.627000000
C     1.256000000    -0.415000000     0.059000000
H     2.273000000    -0.749000000     0.247000000
C     0.180000000    -0.756000000     0.892000000
H     0.558000000    -1.414000000     1.706000000
C    -1.102000000    -0.409000000     0.634000000
H    -1.879000000    -0.918000000     1.198000000
C    -1.345000000     0.461000000    -0.445000000
H    -2.374000000     0.798000000    -0.550000000
C    -0.328000000     0.923000000    -1.229000000
C    -0.658000000     1.923000000    -2.257000000
O    -1.732000000     2.393000000    -2.353000000
O     0.264000000     2.447000000    -2.814000000
O     1.350000000     0.505000000     7.558000000
H     1.858000000     0.256000000     6.787000000
H     0.573000000    -0.053000000     7.524000000
O     1.362000000     4.765000000    -4.311000000
H     2.102000000     4.202000000    -4.541000000
H     0.799000000     4.210000000    -3.771000000
O    -2.219000000     7.363000000    -1.616000000
H    -2.346000000     6.434000000    -1.806000000
H    -2.479000000     7.459000000    -0.700000000
O    -4.473000000    -2.147000000     3.900000000
H    -3.701000000    -2.688000000     3.734000000
H    -4.916000000    -2.095000000     3.053000000
O    -2.412000000    -0.127000000    -5.923000000
H    -2.240000000     0.765000000    -5.623000000
H    -3.362000000    -0.165000000    -6.031000000
O     4.765000000    -4.974000000     4.198000000
H     4.968000000    -4.161000000     4.659000000
H     4.535000000    -4.696000000     3.311000000
O    -2.487000000    -4.531000000     2.852000000
H    -1.658000000    -4.172000000     3.166000000
H    -2.457000000    -4.409000000     1.903000000
O    -2.216000000     2.351000000    -5.057000000
H    -2.246000000     2.627000000    -4.141000000
H    -1.291000000     2.172000000    -5.223000000
O     1.803000000     2.973000000    -7.380000000
H     1.253000000     2.677000000    -8.104000000
H     1.553000000     2.414000000    -6.644000000
O     6.719000000    -2.249000000    -0.631000000
H     6.996000000    -3.036000000    -1.100000000
H     6.856000000    -2.460000000     0.293000000
O     1.577000000     7.207000000    -2.554000000
H     1.417000000     6.842000000    -3.425000000
H     1.062000000     6.656000000    -1.965000000
O     0.437000000    -0.740000000     5.134000000
H     1.266000000    -0.561000000     4.689000000
H     0.233000000    -1.647000000     4.905000000
O    -4.311000000     3.499000000     1.486000000
H    -4.615000000     3.609000000     2.387000000
H    -4.962000000     3.960000000     0.956000000
O     7.222000000     0.738000000    -3.744000000
H     7.026000000     0.674000000    -4.679000000
H     6.375000000     0.909000000    -3.332000000
O    -3.805000000     0.573000000    -2.679000000
H    -4.280000000     0.561000000    -1.848000000
H    -3.103000000     1.210000000    -2.545000000
O     5.145000000     0.232000000    -0.651000000
H     5.665000000    -0.563000000    -0.533000000
H     5.005000000     0.289000000    -1.596000000
O    -0.283000000    -3.153000000     4.153000000
H     0.462000000    -3.558000000     3.709000000
H    -0.360000000    -3.634000000     4.977000000
O     0.247000000     2.820000000     4.032000000
H    -0.137000000     2.004000000     4.351000000
H     0.960000000     3.005000000     4.645000000
O     4.520000000    -0.781000000     2.221000000
H     4.548000000    -0.320000000     1.383000000
H     5.417000000    -1.087000000     2.356000000
O     2.840000000    -1.669000000    -4.187000000
H     1.900000000    -1.502000000    -4.255000000
H     3.147000000    -1.684000000    -5.093000000
O    -5.280000000     1.016000000     0.697000000
H    -6.116000000     1.239000000     0.287000000
H    -4.967000000     1.842000000     1.066000000
O    -1.683000000     0.840000000     5.879000000
H    -1.762000000     0.573000000     6.794000000
H    -1.071000000     0.210000000     5.498000000
O     4.576000000     0.366000000    -3.846000000
H     4.090000000     1.187000000    -3.771000000
H     3.899000000    -0.309000000    -3.903000000
O     0.170000000    -6.604000000     0.942000000
H     0.627000000    -6.317000000     0.151000000
H    -0.758000000    -6.504000000     0.732000000
O     3.307000000     4.790000000    -1.419000000
H     2.865000000     5.447000000    -1.957000000
H     3.995000000     5.276000000    -0.964000000
O     3.921000000     2.369000000     1.174000000
H     2.969000000     2.298000000     1.106000000
H     4.253000000     1.830000000     0.456000000
O    -0.559000000    -2.567000000    -1.844000000
H    -0.539000000    -1.916000000    -1.143000000
H     0.247000000    -3.070000000    -1.727000000
O     4.289000000    -4.895000000    -0.760000000
H     5.006000000    -5.498000000    -0.564000000
H     4.396000000    -4.690000000    -1.689000000
O    -5.792000000     1.404000000    -4.274000000
H    -5.328000000     1.195000000    -3.463000000
H    -5.109000000     1.413000000    -4.945000000
O     3.888000000    -3.918000000    -3.259000000
H     4.602000000    -4.206000000    -3.828000000
H     3.649000000    -3.053000000    -3.593000000
O     2.708000000     0.600000000     4.005000000
H     3.486000000     0.052000000     3.901000000
H     2.736000000     1.199000000     3.259000000
O    -2.988000000     4.655000000    -1.944000000
H    -2.619000000     3.776000000    -2.023000000
H    -3.935000000     4.523000000    -1.998000000
O     0.886000000     1.389000000    -5.355000000
H     0.705000000     1.836000000    -4.528000000
H     0.892000000     0.459000000    -5.128000000
O    -5.517000000    -1.981000000     1.013000000
H    -6.312000000    -2.063000000     0.486000000
H    -5.252000000    -1.068000000     0.904000000
O    -0.055000000     5.042000000    -1.808000000
H     0.080000000     4.096000000    -1.753000000
H    -0.971000000     5.168000000    -1.560000000
O    -6.017000000     3.642000000    -0.920000000
H    -6.559000000     2.854000000    -0.896000000
H    -6.639000000     4.363000000    -0.816000000
O    -4.280000000    -4.159000000    -0.036000000
H    -4.224000000    -3.843000000    -0.938000000
H    -4.735000000    -3.460000000     0.434000000
O     1.255000000     2.241000000     1.726000000
H     0.911000000     2.601000000     2.543000000
H     0.553000000     1.682000000     1.395000000
O     0.241000000    -1.179000000    -4.214000000
H    -0.061000000    -1.494000000    -3.363000000
H    -0.278000000    -1.671000000    -4.850000000
O    -2.839000000    -1.861000000    -3.324000000
H    -1.983000000    -1.979000000    -2.911000000
H    -3.103000000    -0.974000000    -3.081000000
O     1.606000000    -3.923000000     2.595000000
H     2.538000000    -3.891000000     2.381000000
H     1.220000000    -4.469000000     1.910000000
O     2.866000000     2.499000000    -3.377000000
H     1.994000000     2.386000000    -2.999000000
H     3.237000000     3.243000000    -2.903000000
O     1.447000000    -4.120000000    -1.320000000
H     1.368000000    -5.074000000    -1.354000000
H     2.335000000    -3.942000000    -1.632000000
O    -0.838000000     6.149000000    -6.489000000
H    -0.317000000     5.756000000    -5.789000000
H    -0.193000000     6.548000000    -7.073000000
O     4.444000000    -2.481000000     4.857000000
H     4.164000000    -1.845000000     4.200000000
H     5.195000000    -2.069000000     5.284000000
O     1.184000000     6.375000000     0.741000000
H     0.546000000     5.723000000     1.033000000
H     1.544000000     6.012000000    -0.068000000
O    -4.211000000     0.597000000     4.732000000
H    -3.290000000     0.717000000     4.966000000
H    -4.252000000    -0.286000000     4.365000000
O     4.223000000    -3.914000000     1.696000000
H     4.159000000    -4.172000000     0.776000000
H     5.062000000    -3.458000000     1.759000000
