158
-3029.67054
C    -0.463000000     0.500000000     1.316000000
H    -0.723000000     1.068000000     2.205000000
C    -0.442000000     1.213000000     0.111000000
H    -0.777000000     2.247000000     0.102000000
C    -0.077000000     0.605000000    -1.038000000
H     0.073000000     1.256000000    -1.927000000
C     0.217000000    -0.757000000    -1.016000000
H     0.355000000    -1.236000000    -1.982000000
C     0.312000000    -1.453000000     0.165000000
H     0.511000000    -2.517000000     0.264000000
C     0.019000000    -0.798000000     1.381000000
C     0.392000000    -1.452000000     2.660000000
O    -0.166000000    -0.958000000     3.632000000
O     1.345000000    -2.197000000     2.725000000
O    -1.685000000    -6.042000000     0.506000000
H    -1.144000000    -5.586000000     1.151000000
H    -1.813000000    -6.916000000     0.876000000
O    -4.137000000    -0.114000000     2.248000000
H    -3.697000000    -0.795000000     1.739000000
H    -3.753000000    -0.181000000     3.122000000
O     0.836000000    -4.762000000     7.331000000
H     0.262000000    -4.217000000     7.869000000
H     1.042000000    -4.216000000     6.572000000
O     3.453000000    -5.846000000    -1.098000000
H     2.625000000    -5.432000000    -1.344000000
H     4.093000000    -5.136000000    -1.124000000
O    -1.089000000     0.135000000    -4.596000000
H    -0.252000000     0.406000000    -4.219000000
H    -1.309000000    -0.673000000    -4.133000000
O    -3.652000000     5.123000000    -2.856000000
H    -4.001000000     5.531000000    -3.648000000
H    -3.365000000     5.858000000    -2.314000000
O    -0.549000000     6.679000000     2.328000000
H    -0.470000000     5.730000000     2.423000000
H    -0.375000000     6.843000000     1.401000000
O     3.760000000     2.821000000    -4.786000000
H     3.952000000     3.310000000    -5.586000000
H     4.233000000     1.996000000    -4.890000000
O     1.320000000     0.453000000    -6.659000000
H     1.902000000    -0.276000000    -6.874000000
H     0.537000000     0.298000000    -7.188000000
O     3.579000000    -0.614000000     1.191000000
H     3.839000000    -1.161000000     0.450000000
H     3.328000000    -1.237000000     1.873000000
O     1.341000000     0.965000000    -4.007000000
H     1.550000000     1.895000000    -4.092000000
H     1.449000000     0.614000000    -4.891000000
O    -0.339000000     4.402000000    -3.925000000
H     0.227000000     4.537000000    -3.165000000
H     0.261000000     4.167000000    -4.632000000
O     3.687000000     2.961000000     1.968000000
H     3.419000000     2.891000000     1.052000000
H     4.223000000     3.753000000     2.001000000
O     4.415000000    -1.530000000    -1.541000000
H     4.649000000    -2.441000000    -1.365000000
H     3.719000000    -1.583000000    -2.196000000
O    -3.954000000     0.140000000    -3.952000000
H    -4.899000000     0.285000000    -3.916000000
H    -3.573000000     1.006000000    -3.802000000
O    -1.941000000     4.745000000     0.422000000
H    -2.275000000     5.376000000    -0.216000000
H    -1.022000000     4.986000000     0.539000000
O     0.803000000    -3.091000000    -4.982000000
H    -0.087000000    -2.743000000    -5.029000000
H     0.889000000    -3.634000000    -5.766000000
O     2.643000000    -1.381000000    -3.493000000
H     2.050000000    -1.954000000    -3.979000000
H     2.142000000    -0.577000000    -3.358000000
O    -0.304000000    -4.540000000     2.378000000
H     0.227000000    -3.761000000     2.542000000
H    -0.816000000    -4.655000000     3.179000000
O    -3.351000000    -0.545000000    -6.594000000
H    -3.861000000     0.245000000    -6.774000000
H    -3.023000000    -0.420000000    -5.703000000
O     2.160000000     3.556000000    -2.908000000
H     2.874000000     3.352000000    -3.512000000
H     2.316000000     2.990000000    -2.152000000
O    -0.009000000     6.557000000    -0.110000000
H     0.731000000     6.205000000    -0.605000000
H    -0.218000000     7.383000000    -0.546000000
O     2.338000000     6.113000000    -1.934000000
H     2.615000000     6.716000000    -2.624000000
H     2.353000000     5.251000000    -2.349000000
O     1.618000000    -3.959000000    -1.729000000
H     1.679000000    -3.679000000    -2.642000000
H     0.702000000    -4.212000000    -1.616000000
O    -1.839000000    -2.841000000    -4.356000000
H    -1.808000000    -2.920000000    -3.402000000
H    -2.547000000    -3.426000000    -4.622000000
O    -3.006000000    -4.196000000     3.754000000
H    -3.249000000    -4.691000000     2.973000000
H    -3.572000000    -3.424000000     3.735000000
O    -4.041000000     2.006000000    -0.122000000
H    -3.640000000     1.443000000     0.541000000
H    -3.341000000     2.167000000    -0.755000000
O     0.823000000    -6.967000000     1.749000000
H     0.449000000    -6.151000000     2.081000000
H     0.335000000    -7.655000000     2.202000000
O    -2.611000000     2.666000000    -2.837000000
H    -1.807000000     3.165000000    -2.983000000
H    -3.308000000     3.322000000    -2.871000000
O     2.759000000    -2.540000000     6.657000000
H     3.577000000    -2.094000000     6.437000000
H     2.712000000    -2.499000000     7.612000000
O     1.258000000     3.367000000    -6.697000000
H     1.201000000     2.435000000    -6.487000000
H     1.059000000     3.414000000    -7.632000000
O    -0.023000000     3.892000000     2.310000000
H    -0.750000000     3.272000000     2.363000000
H     0.707000000     3.442000000     2.735000000
O     0.104000000    -3.000000000     5.373000000
H     1.038000000    -2.899000000     5.557000000
H    -0.062000000    -2.404000000     4.643000000
O     5.406000000    -4.903000000     3.556000000
H     4.610000000    -4.658000000     3.084000000
H     6.099000000    -4.853000000     2.899000000
O     1.947000000     2.618000000     3.973000000
H     2.649000000     2.615000000     3.323000000
H     1.991000000     1.751000000     4.377000000
O    -2.029000000     3.193000000     5.071000000
H    -2.067000000     3.086000000     4.121000000
H    -1.096000000     3.281000000     5.265000000
O    -2.610000000     3.085000000     2.519000000
H    -2.529000000     3.312000000     1.593000000
H    -3.545000000     3.174000000     2.706000000
O     3.357000000    -3.859000000     2.144000000
H     2.626000000    -3.242000000     2.156000000
H     3.073000000    -4.557000000     1.554000000
O     2.496000000    -0.039000000     4.374000000
H     2.117000000    -0.815000000     3.961000000
H     3.349000000     0.065000000     3.951000000
O     2.488000000     1.800000000    -0.686000000
H     3.035000000     1.084000000    -0.365000000
H     1.621000000     1.621000000    -0.323000000
O    -3.415000000    -2.193000000    -2.053000000
H    -4.356000000    -2.359000000    -2.004000000
H    -3.320000000    -1.554000000    -2.759000000
O    -3.014000000    -2.288000000     0.901000000
H    -3.091000000    -3.192000000     0.597000000
H    -2.765000000    -1.793000000     0.120000000
O    -2.332000000     2.256000000    -6.550000000
H    -1.720000000     1.627000000    -6.168000000
H    -1.854000000     3.085000000    -6.549000000
O    -0.459000000    -6.152000000    -3.560000000
H    -0.456000000    -6.950000000    -3.031000000
H    -0.640000000    -5.451000000    -2.935000000
O     0.776000000     0.817000000     6.375000000
H    -0.138000000     0.677000000     6.125000000
H     1.275000000     0.261000000     5.777000000
O    -2.288000000    -0.644000000     5.406000000
H    -1.485000000    -0.650000000     4.886000000
H    -2.140000000    -1.304000000     6.083000000
O    -1.146000000    -4.288000000    -1.479000000
H    -1.929000000    -3.743000000    -1.550000000
H    -1.410000000    -5.014000000    -0.914000000
O    -4.914000000     0.236000000     5.313000000
H    -3.991000000     0.095000000     5.100000000
H    -5.155000000    -0.521000000     5.847000000
