158
-3021.27945
C     0.753000000     0.439000000     1.145000000
H     1.334000000     0.820000000     1.981000000
C    -0.165000000     1.213000000     0.523000000
H    -0.299000000     2.235000000     0.868000000
C    -0.822000000     0.723000000    -0.628000000
H    -1.540000000     1.286000000    -1.215000000
C    -0.628000000    -0.628000000    -0.936000000
H    -1.141000000    -1.177000000    -1.721000000
C     0.358000000    -1.377000000    -0.329000000
H     0.457000000    -2.396000000    -0.694000000
C     1.113000000    -0.841000000     0.677000000
C     1.992000000    -1.779000000     1.532000000
O     2.362000000    -1.434000000     2.608000000
O     2.159000000    -2.913000000     1.171000000
O    -6.034000000    -0.874000000     1.266000000
H    -6.397000000    -1.458000000     1.932000000
H    -5.087000000    -1.002000000     1.325000000
O     7.071000000     0.683000000     2.648000000
H     6.396000000     0.018000000     2.783000000
H     7.104000000     0.802000000     1.698000000
O     0.724000000    -6.537000000    -0.477000000
H     0.644000000    -7.363000000     0.001000000
H     1.266000000    -6.751000000    -1.236000000
O     5.772000000    -0.919000000     5.765000000
H     5.580000000    -0.001000000     5.573000000
H     5.644000000    -1.370000000     4.931000000
O    -1.759000000     4.162000000    -5.908000000
H    -2.711000000     4.242000000    -5.970000000
H    -1.574000000     3.270000000    -6.203000000
O     2.462000000     2.290000000    -1.054000000
H     1.629000000     2.436000000    -1.502000000
H     2.259000000     2.405000000    -0.126000000
O     3.229000000    -2.531000000    -5.085000000
H     2.413000000    -2.145000000    -4.766000000
H     3.217000000    -3.428000000    -4.751000000
O     4.130000000     0.183000000    -1.205000000
H     4.138000000    -0.042000000    -2.135000000
H     3.505000000     0.905000000    -1.139000000
O    -3.500000000     3.817000000    -0.783000000
H    -3.668000000     4.381000000    -1.538000000
H    -4.042000000     4.184000000    -0.085000000
O     2.485000000    -1.543000000     7.466000000
H     3.032000000    -1.545000000     6.681000000
H     1.746000000    -2.111000000     7.245000000
O     3.098000000     4.332000000    -3.328000000
H     2.837000000     3.984000000    -2.476000000
H     3.334000000     5.243000000    -3.152000000
O     0.229000000     3.216000000    -2.182000000
H    -0.587000000     2.717000000    -2.227000000
H     0.046000000     3.917000000    -1.556000000
O    -4.651000000     2.350000000    -3.668000000
H    -4.154000000     1.583000000    -3.382000000
H    -4.768000000     2.870000000    -2.874000000
O     1.302000000    -0.505000000    -4.414000000
H     1.607000000     0.066000000    -3.709000000
H     0.458000000    -0.136000000    -4.673000000
O    -3.953000000     3.338000000     3.326000000
H    -4.442000000     2.525000000     3.205000000
H    -3.103000000     3.059000000     3.666000000
O    -0.670000000    -0.032000000     6.969000000
H    -0.680000000    -0.676000000     7.677000000
H     0.173000000    -0.166000000     6.535000000
O    -4.071000000    -2.751000000    -3.612000000
H    -3.917000000    -2.192000000    -4.374000000
H    -4.887000000    -3.209000000    -3.813000000
O    -1.239000000    -4.166000000     3.944000000
H    -1.640000000    -3.302000000     3.855000000
H    -0.611000000    -4.214000000     3.223000000
O    -4.037000000    -0.077000000    -2.217000000
H    -4.564000000    -0.210000000    -1.429000000
H    -3.957000000    -0.951000000    -2.601000000
O    -2.129000000    -4.123000000     0.505000000
H    -1.253000000    -4.461000000     0.693000000
H    -2.268000000    -4.322000000    -0.421000000
O     0.383000000    -3.107000000     6.000000000
H     0.025000000    -3.217000000     5.118000000
H    -0.179000000    -3.648000000     6.555000000
O     5.141000000    -1.190000000     2.541000000
H     5.213000000    -1.409000000     1.612000000
H     4.231000000    -1.385000000     2.764000000
O    -0.927000000     4.562000000    -0.161000000
H    -1.837000000     4.267000000    -0.151000000
H    -0.747000000     4.818000000     0.744000000
O    -1.557000000    -2.800000000    -6.835000000
H    -1.370000000    -2.931000000    -5.905000000
H    -2.427000000    -3.180000000    -6.960000000
O    -3.082000000     5.229000000    -3.183000000
H    -2.285000000     5.222000000    -3.713000000
H    -3.715000000     5.719000000    -3.708000000
O     0.794000000     4.540000000     4.871000000
H     0.206000000     4.949000000     5.506000000
H     0.834000000     5.163000000     4.146000000
O    -1.084000000     0.714000000    -5.380000000
H    -2.006000000     0.476000000    -5.479000000
H    -0.905000000     1.292000000    -6.122000000
O     4.139000000    -4.018000000     6.686000000
H     5.012000000    -4.047000000     6.294000000
H     3.599000000    -3.572000000     6.033000000
O     0.175000000    -4.516000000     1.815000000
H     0.731000000    -3.809000000     1.487000000
H     0.535000000    -5.308000000     1.417000000
O     0.090000000     5.455000000    -3.664000000
H     0.210000000     4.648000000    -3.163000000
H     0.175000000     5.185000000    -4.578000000
O    -1.210000000     2.826000000     3.839000000
H    -0.594000000     3.350000000     4.353000000
H    -0.941000000     2.963000000     2.931000000
O     3.369000000    -4.958000000     2.272000000
H     2.796000000    -4.208000000     2.113000000
H     2.972000000    -5.409000000     3.018000000
O     3.197000000     0.556000000     3.870000000
H     2.785000000    -0.152000000     3.375000000
H     3.786000000     0.976000000     3.242000000
O    -5.650000000     4.332000000     0.951000000
H    -5.691000000     3.693000000     1.663000000
H    -6.160000000     3.937000000     0.244000000
O     3.221000000    -4.346000000    -0.963000000
H     2.842000000    -3.727000000    -0.339000000
H     2.677000000    -5.129000000    -0.885000000
O     2.821000000    -3.065000000     4.611000000
H     2.657000000    -2.409000000     3.934000000
H     1.961000000    -3.229000000     4.999000000
O    -2.126000000    -4.482000000    -2.434000000
H    -1.275000000    -4.471000000    -2.871000000
H    -2.707000000    -4.006000000    -3.029000000
O     0.610000000    -4.642000000    -3.145000000
H     0.842000000    -4.991000000    -2.284000000
H     1.064000000    -5.214000000    -3.765000000
O     4.967000000     2.965000000     2.860000000
H     5.427000000     3.804000000     2.888000000
H     5.512000000     2.411000000     2.300000000
O    -0.492000000    -2.560000000    -4.221000000
H     0.026000000    -3.262000000    -3.827000000
H     0.053000000    -1.779000000    -4.128000000
O     5.148000000    -2.336000000     0.014000000
H     5.274000000    -3.281000000     0.105000000
H     4.298000000    -2.249000000    -0.417000000
O    -2.526000000    -1.906000000     3.981000000
H    -2.697000000    -1.146000000     4.537000000
H    -2.835000000    -1.642000000     3.114000000
O     2.361000000     2.208000000     6.050000000
H     1.953000000     2.948000000     5.599000000
H     2.475000000     1.546000000     5.368000000
O    -5.478000000    -4.189000000    -0.721000000
H    -5.250000000    -3.999000000     0.189000000
H    -4.692000000    -3.964000000    -1.218000000
O    -3.410000000    -1.658000000     1.111000000
H    -2.874000000    -0.972000000     0.713000000
H    -3.061000000    -2.474000000     0.751000000
O    -0.512000000     5.500000000     2.447000000
H    -1.154000000     5.795000000     3.093000000
H    -0.024000000     6.290000000     2.216000000
O    -2.684000000     0.761000000     5.408000000
H    -2.134000000     1.408000000     4.966000000
H    -2.076000000     0.265000000     5.956000000
O     5.765000000    -3.861000000     3.574000000
H     4.982000000    -4.395000000     3.433000000
H     5.570000000    -3.031000000     3.140000000
