158
-3007.13771
C     0.443000000     1.322000000     0.627000000
H     0.790000000     2.234000000     1.106000000
C    -0.077000000     1.159000000    -0.660000000
H    -0.103000000     2.073000000    -1.248000000
C    -0.503000000    -0.054000000    -1.095000000
H    -0.862000000    -0.180000000    -2.168000000
C    -0.322000000    -1.202000000    -0.326000000
H    -0.627000000    -2.209000000    -0.598000000
C     0.173000000    -1.085000000     0.911000000
H     0.327000000    -2.012000000     1.458000000
C     0.661000000     0.140000000     1.407000000
C     1.232000000     0.189000000     2.827000000
O     1.446000000     1.177000000     3.447000000
O     1.516000000    -0.901000000     3.328000000
O     1.869000000     1.505000000     7.219000000
H     1.305000000     1.400000000     6.453000000
H     1.336000000     1.998000000     7.842000000
O     6.371000000     2.688000000     4.445000000
H     5.421000000     2.627000000     4.540000000
H     6.501000000     3.285000000     3.708000000
O    -1.092000000    -2.659000000    -5.157000000
H    -0.654000000    -3.367000000    -4.685000000
H    -1.919000000    -2.536000000    -4.692000000
O     3.804000000     1.794000000     4.146000000
H     4.258000000     1.229000000     3.520000000
H     2.892000000     1.505000000     4.111000000
O     1.409000000    -5.049000000     1.324000000
H     1.736000000    -4.162000000     1.478000000
H     1.669000000    -5.247000000     0.424000000
O     4.474000000    -0.193000000    -1.282000000
H     3.669000000     0.082000000    -1.720000000
H     4.289000000    -1.080000000    -0.974000000
O     5.697000000    -2.991000000     3.398000000
H     4.883000000    -2.655000000     3.775000000
H     5.571000000    -3.940000000     3.364000000
O    -5.490000000    -2.257000000    -1.257000000
H    -5.056000000    -1.409000000    -1.162000000
H    -6.351000000    -2.047000000    -1.619000000
O     0.883000000    -2.202000000     5.571000000
H     1.480000000    -2.949000000     5.514000000
H     1.054000000    -1.699000000     4.774000000
O     2.142000000    -2.175000000    -3.046000000
H     2.614000000    -2.363000000    -2.234000000
H     2.002000000    -1.229000000    -3.029000000
O     3.391000000    -2.621000000    -0.563000000
H     3.368000000    -2.608000000     0.394000000
H     3.457000000    -3.549000000    -0.788000000
O    -0.933000000     2.176000000    -6.908000000
H    -1.156000000     1.992000000    -7.821000000
H    -0.226000000     2.819000000    -6.960000000
O    -0.034000000     3.899000000    -3.849000000
H    -0.187000000     4.620000000    -4.460000000
H     0.894000000     3.688000000    -3.956000000
O     2.967000000    -2.916000000     2.090000000
H     2.631000000    -2.056000000     2.339000000
H     2.963000000    -3.420000000     2.903000000
O     4.262000000     2.591000000     6.766000000
H     3.631000000     2.059000000     7.252000000
H     4.250000000     2.229000000     5.881000000
O    -1.638000000    -1.462000000     3.291000000
H    -1.781000000    -2.213000000     3.868000000
H    -0.686000000    -1.382000000     3.234000000
O    -2.151000000    -5.163000000     1.720000000
H    -2.593000000    -5.903000000     2.136000000
H    -1.821000000    -5.516000000     0.894000000
O    -0.806000000     6.457000000     0.206000000
H    -0.608000000     6.211000000     1.110000000
H    -1.557000000     7.047000000     0.277000000
O     0.370000000     4.165000000     6.854000000
H     1.204000000     4.632000000     6.823000000
H     0.273000000     3.788000000     5.980000000
O    -3.327000000    -1.848000000    -3.903000000
H    -4.186000000    -2.249000000    -4.036000000
H    -3.521000000    -0.944000000    -3.654000000
O    -0.139000000     4.381000000     2.218000000
H    -0.002000000     3.992000000     3.082000000
H     0.721000000     4.345000000     1.800000000
O    -2.944000000    -2.006000000     0.607000000
H    -2.459000000    -2.633000000     0.071000000
H    -2.270000000    -1.551000000     1.112000000
O    -2.585000000     0.911000000     3.255000000
H    -2.211000000     0.032000000     3.192000000
H    -3.109000000     0.892000000     4.055000000
O    -3.872000000     0.647000000    -6.394000000
H    -3.938000000     0.786000000    -5.449000000
H    -3.076000000     0.127000000    -6.505000000
O     2.704000000     4.505000000     3.507000000
H     2.810000000     3.605000000     3.816000000
H     2.665000000     4.427000000     2.553000000
O    -4.277000000     0.851000000    -3.101000000
H    -3.560000000     1.439000000    -3.335000000
H    -4.104000000     0.612000000    -2.191000000
O     0.391000000    -4.921000000     4.085000000
H     0.876000000    -4.097000000     4.041000000
H     0.478000000    -5.297000000     3.209000000
O    -2.556000000    -3.852000000    -1.725000000
H    -3.030000000    -3.146000000    -2.164000000
H    -3.236000000    -4.480000000    -1.478000000
O     2.930000000    -1.397000000    -5.726000000
H     2.530000000    -1.634000000    -4.889000000
H     3.809000000    -1.774000000    -5.687000000
O     2.224000000     4.486000000     0.870000000
H     2.015000000     4.947000000     0.058000000
H     3.037000000     4.018000000     0.677000000
O    -6.835000000     1.172000000    -4.121000000
H    -6.039000000     1.059000000    -3.601000000
H    -7.009000000     2.112000000    -4.091000000
O     3.989000000    -1.329000000     4.804000000
H     4.562000000    -0.669000000     4.413000000
H     3.127000000    -0.914000000     4.827000000
O     3.378000000    -4.703000000     4.273000000
H     4.277000000    -4.940000000     4.501000000
H     2.858000000    -4.985000000     5.026000000
O    -4.246000000     0.235000000    -0.309000000
H    -3.936000000    -0.591000000     0.064000000
H    -4.349000000     0.815000000     0.446000000
O    -2.813000000     4.830000000     2.516000000
H    -1.870000000     4.707000000     2.625000000
H    -2.892000000     5.425000000     1.770000000
O    -1.712000000    -0.818000000    -7.090000000
H    -0.759000000    -0.763000000    -7.159000000
H    -1.865000000    -1.460000000    -6.397000000
O     2.722000000     2.928000000    -4.076000000
H     2.951000000     2.686000000    -4.973000000
H     3.347000000     3.616000000    -3.846000000
O    -4.759000000    -4.012000000     1.356000000
H    -4.478000000    -3.164000000     1.014000000
H    -4.333000000    -4.653000000     0.787000000
O    -0.578000000     2.451000000     4.517000000
H     0.256000000     2.049000000     4.273000000
H    -1.192000000     2.154000000     3.846000000
O    -1.634000000     5.085000000    -1.878000000
H    -1.105000000     4.599000000    -2.511000000
H    -0.994000000     5.495000000    -1.296000000
O    -1.990000000     1.746000000    -4.539000000
H    -1.310000000     2.231000000    -4.072000000
H    -1.609000000     1.565000000    -5.398000000
O    -3.116000000     3.634000000    -6.136000000
H    -3.553000000     3.119000000    -5.458000000
H    -2.335000000     3.127000000    -6.356000000
O     5.372000000     1.553000000     1.612000000
H     4.884000000     1.347000000     0.815000000
H     5.234000000     0.795000000     2.180000000
O     1.880000000     0.483000000    -2.959000000
H     2.307000000     1.305000000    -3.201000000
H     1.189000000     0.742000000    -2.350000000
O    -0.168000000    -5.260000000    -1.074000000
H    -0.922000000    -4.673000000    -1.134000000
H     0.478000000    -4.882000000    -1.670000000
O     4.714000000     4.072000000     0.492000000
H     5.361000000     4.414000000     1.110000000
H     5.195000000     3.979000000    -0.330000000
O    -1.585000000    -2.225000000     7.112000000
H    -0.727000000    -2.083000000     6.713000000
H    -2.028000000    -2.833000000     6.519000000
O    -2.507000000     3.567000000     5.958000000
H    -2.475000000     3.074000000     6.778000000
H    -1.726000000     3.289000000     5.480000000
