158
-2992.48430
C    -0.299000000     1.350000000     0.600000000
H    -0.383000000     2.390000000     0.906000000
C    -0.084000000     1.099000000    -0.772000000
H    -0.289000000     1.930000000    -1.441000000
C     0.098000000    -0.216000000    -1.204000000
H     0.168000000    -0.363000000    -2.317000000
C     0.170000000    -1.241000000    -0.275000000
H     0.422000000    -2.218000000    -0.679000000
C     0.152000000    -1.000000000     1.054000000
H     0.295000000    -1.796000000     1.780000000
C    -0.205000000     0.264000000     1.520000000
C    -0.391000000     0.535000000     3.051000000
O    -0.578000000     1.667000000     3.400000000
O    -0.208000000    -0.343000000     3.877000000
O     0.703000000    -5.474000000    -5.650000000
H     0.182000000    -5.152000000    -6.385000000
H     0.411000000    -4.953000000    -4.902000000
O     1.118000000    -2.575000000     6.689000000
H     0.233000000    -2.483000000     6.337000000
H     1.670000000    -2.080000000     6.083000000
O    -4.151000000    -2.146000000     5.940000000
H    -4.207000000    -3.071000000     5.704000000
H    -3.265000000    -1.886000000     5.687000000
O    -3.567000000    -0.635000000     2.666000000
H    -4.380000000    -0.876000000     3.110000000
H    -2.876000000    -1.001000000     3.218000000
O     4.007000000    -5.334000000    -4.063000000
H     3.155000000    -5.279000000    -3.630000000
H     4.059000000    -4.535000000    -4.589000000
O    -5.221000000     1.614000000    -0.160000000
H    -5.677000000     1.802000000     0.660000000
H    -4.666000000     0.861000000     0.041000000
O    -2.051000000     2.239000000     5.746000000
H    -1.442000000     2.068000000     5.028000000
H    -1.892000000     1.531000000     6.370000000
O     0.717000000     4.839000000    -4.460000000
H     0.376000000     5.691000000    -4.732000000
H     0.049000000     4.213000000    -4.740000000
O    -1.080000000    -5.248000000     1.060000000
H    -1.810000000    -5.435000000     0.469000000
H    -1.053000000    -5.999000000     1.652000000
O    -2.173000000     4.931000000    -2.817000000
H    -1.833000000     4.302000000    -3.453000000
H    -3.037000000     5.168000000    -3.153000000
O     1.533000000    -4.764000000    -2.564000000
H     0.716000000    -4.975000000    -3.016000000
H     1.321000000    -3.998000000    -2.030000000
O    -1.247000000     0.656000000     8.142000000
H    -1.579000000     0.129000000     8.869000000
H    -0.396000000     0.269000000     7.936000000
O     1.067000000     3.694000000     3.414000000
H     0.553000000     2.888000000     3.476000000
H     1.888000000     3.490000000     3.862000000
O     2.291000000    -3.858000000     3.884000000
H     1.607000000    -4.393000000     4.286000000
H     1.988000000    -3.717000000     2.987000000
O     3.398000000     1.805000000     5.707000000
H     3.509000000     1.831000000     6.657000000
H     4.103000000     2.357000000     5.368000000
O     0.538000000     6.232000000     3.254000000
H     0.836000000     5.330000000     3.367000000
H     0.376000000     6.544000000     4.144000000
O    -2.728000000     3.130000000     2.319000000
H    -2.979000000     3.442000000     3.189000000
H    -1.807000000     2.883000000     2.410000000
O    -2.044000000    -3.776000000     3.121000000
H    -2.937000000    -4.100000000     3.003000000
H    -1.542000000    -4.199000000     2.424000000
O    -5.184000000     1.898000000     2.770000000
H    -4.251000000     2.108000000     2.744000000
H    -5.221000000     1.016000000     3.140000000
O     0.593000000     0.905000000    -5.838000000
H     0.039000000     0.607000000    -6.560000000
H     1.126000000     1.603000000    -6.218000000
O    -1.107000000     6.998000000    -1.588000000
H    -1.400000000     6.139000000    -1.891000000
H    -1.665000000     7.620000000    -2.056000000
O    -4.085000000     1.392000000    -3.821000000
H    -4.935000000     1.672000000    -3.482000000
H    -4.203000000     0.465000000    -4.027000000
O    -3.044000000    -0.345000000     0.039000000
H    -2.146000000    -0.017000000    -0.002000000
H    -3.196000000    -0.507000000     0.970000000
O     1.998000000     1.729000000    -3.113000000
H     2.354000000     2.617000000    -3.088000000
H     1.516000000     1.687000000    -3.939000000
O    -3.843000000     3.985000000     0.099000000
H    -3.397000000     3.764000000     0.917000000
H    -4.031000000     3.139000000    -0.308000000
O     2.148000000    -0.440000000     4.958000000
H     2.495000000     0.445000000     5.066000000
H     1.374000000    -0.328000000     4.406000000
O     1.889000000    -1.102000000    -4.222000000
H     1.731000000    -0.196000000    -3.955000000
H     1.660000000    -1.120000000    -5.152000000
O    -2.437000000     4.882000000     6.052000000
H    -2.515000000     3.951000000     5.844000000
H    -2.621000000     5.329000000     5.226000000
O    -2.191000000     0.286000000    -6.226000000
H    -2.519000000    -0.341000000    -5.582000000
H    -2.372000000    -0.123000000    -7.072000000
O     1.073000000     5.188000000    -0.122000000
H     0.478000000     5.560000000    -0.774000000
H     1.094000000     4.252000000    -0.324000000
O     3.537000000    -2.486000000     0.881000000
H     3.286000000    -1.928000000     0.145000000
H     2.738000000    -2.964000000     1.101000000
O     1.810000000     0.370000000     7.743000000
H     2.346000000    -0.200000000     8.295000000
H     1.927000000     0.025000000     6.858000000
O    -1.296000000    -2.271000000     5.177000000
H    -0.711000000    -1.585000000     4.856000000
H    -1.456000000    -2.826000000     4.414000000
O     3.160000000     4.394000000    -3.115000000
H     3.849000000     4.481000000    -3.774000000
H     2.379000000     4.751000000    -3.537000000
O     5.595000000    -3.888000000    -1.445000000
H     4.742000000    -3.472000000    -1.570000000
H     5.679000000    -4.490000000    -2.184000000
O    -0.822000000    -5.108000000    -3.229000000
H    -1.258000000    -4.298000000    -2.965000000
H    -1.449000000    -5.539000000    -3.810000000
O     3.558000000    -1.671000000    -1.975000000
H     3.141000000    -1.677000000    -2.837000000
H     3.466000000    -0.768000000    -1.671000000
O    -4.629000000    -2.086000000    -1.110000000
H    -5.240000000    -2.001000000    -0.378000000
H    -3.833000000    -1.647000000    -0.809000000
O    -1.546000000     2.518000000    -4.276000000
H    -2.373000000     2.084000000    -4.064000000
H    -1.113000000     1.923000000    -4.888000000
O    -3.173000000     5.682000000     3.398000000
H    -4.038000000     5.548000000     3.011000000
H    -2.602000000     5.862000000     2.651000000
O     2.005000000    -6.580000000    -0.647000000
H     1.258000000    -7.121000000    -0.901000000
H     2.066000000    -5.917000000    -1.334000000
O    -4.512000000    -1.437000000    -4.395000000
H    -4.216000000    -1.714000000    -5.262000000
H    -4.975000000    -2.199000000    -4.045000000
O     2.679000000     0.753000000    -0.581000000
H     1.816000000     0.377000000    -0.408000000
H     2.572000000     1.233000000    -1.402000000
O    -1.510000000     6.654000000     1.542000000
H    -1.512000000     6.625000000     0.586000000
H    -0.677000000     6.256000000     1.793000000
O    -2.126000000    -2.620000000    -2.428000000
H    -2.851000000    -2.129000000    -2.816000000
H    -2.503000000    -3.026000000    -1.647000000
O     5.338000000    -1.278000000     2.633000000
H     4.506000000    -1.433000000     2.186000000
H     5.991000000    -1.710000000     2.082000000
O     1.443000000    -4.423000000     1.375000000
H     1.679000000    -5.274000000     1.006000000
H     0.486000000    -4.410000000     1.354000000
O     3.755000000     2.669000000     1.106000000
H     3.437000000     1.928000000     0.590000000
H     3.038000000     3.302000000     1.084000000
