158
-3041.13328
C    -0.298000000     1.497000000    -0.086000000
H    -0.522000000     2.547000000    -0.254000000
C     0.125000000     0.694000000    -1.140000000
H     0.233000000     1.145000000    -2.123000000
C     0.395000000    -0.645000000    -0.924000000
H     0.657000000    -1.325000000    -1.761000000
C     0.299000000    -1.227000000     0.286000000
H     0.700000000    -2.214000000     0.502000000
C    -0.169000000    -0.436000000     1.354000000
H    -0.285000000    -0.898000000     2.331000000
C    -0.522000000     0.891000000     1.167000000
C    -0.856000000     1.751000000     2.295000000
O    -1.008000000     2.929000000     2.021000000
O    -0.903000000     1.325000000     3.460000000
O    -2.144000000    -3.331000000    -2.820000000
H    -2.267000000    -2.416000000    -2.568000000
H    -1.335000000    -3.332000000    -3.331000000
O     1.943000000    -2.514000000     5.517000000
H     1.164000000    -2.861000000     5.081000000
H     2.042000000    -1.630000000     5.162000000
O    -1.335000000     1.116000000    -6.367000000
H    -1.506000000     1.853000000    -6.953000000
H    -0.668000000     1.441000000    -5.762000000
O    -2.522000000    -0.712000000    -1.953000000
H    -1.795000000    -0.180000000    -1.628000000
H    -3.216000000    -0.591000000    -1.305000000
O    -4.825000000    -1.233000000    -3.615000000
H    -4.956000000    -1.299000000    -4.560000000
H    -3.886000000    -1.372000000    -3.493000000
O     0.232000000     4.160000000     6.163000000
H     0.567000000     3.937000000     5.294000000
H    -0.610000000     4.582000000     5.993000000
O     2.155000000    -5.543000000     3.593000000
H     2.953000000    -5.594000000     4.120000000
H     1.800000000    -4.675000000     3.781000000
O     3.262000000     1.209000000    -0.228000000
H     2.355000000     1.282000000    -0.524000000
H     3.737000000     1.857000000    -0.748000000
O    -4.138000000     2.120000000    -0.745000000
H    -3.987000000     2.990000000    -0.376000000
H    -4.334000000     1.569000000     0.012000000
O     1.595000000    -3.069000000    -3.530000000
H     1.998000000    -3.788000000    -3.044000000
H     2.330000000    -2.512000000    -3.787000000
O    -0.344000000    -0.786000000     7.857000000
H    -0.602000000    -0.099000000     7.242000000
H    -1.078000000    -0.847000000     8.469000000
O    -4.206000000     2.803000000     6.704000000
H    -4.132000000     2.365000000     5.856000000
H    -3.635000000     2.298000000     7.284000000
O     1.917000000     3.902000000     3.851000000
H     2.579000000     4.592000000     3.841000000
H     2.417000000     3.091000000     3.946000000
O    -2.114000000    -5.776000000    -1.477000000
H    -1.728000000    -5.578000000    -0.624000000
H    -2.156000000    -4.931000000    -1.923000000
O     3.199000000     1.577000000     2.468000000
H     3.147000000     1.306000000     1.552000000
H     4.136000000     1.682000000     2.635000000
O    -0.975000000     1.580000000     6.084000000
H    -0.792000000     2.497000000     6.291000000
H    -1.069000000     1.564000000     5.131000000
O     1.748000000    -0.348000000    -6.453000000
H     1.903000000    -0.856000000    -7.249000000
H     1.996000000     0.546000000    -6.686000000
O    -1.087000000     5.438000000     1.230000000
H    -1.119000000     4.502000000     1.431000000
H    -1.442000000     5.504000000     0.343000000
O    -3.745000000     2.493000000     3.720000000
H    -3.268000000     3.322000000     3.748000000
H    -3.238000000     1.946000000     3.120000000
O    -2.614000000    -3.292000000     3.603000000
H    -3.127000000    -3.355000000     2.798000000
H    -3.219000000    -3.560000000     4.295000000
O    -4.519000000     0.439000000     1.437000000
H    -3.973000000    -0.196000000     1.901000000
H    -4.753000000     0.002000000     0.619000000
O     1.922000000     4.036000000    -5.819000000
H     2.067000000     3.352000000    -6.473000000
H     0.993000000     3.964000000    -5.599000000
O    -5.090000000     5.946000000     2.727000000
H    -4.296000000     5.598000000     3.132000000
H    -5.389000000     6.625000000     3.332000000
O    -2.934000000     2.087000000    -3.228000000
H    -3.254000000     1.923000000    -2.341000000
H    -3.008000000     1.241000000    -3.670000000
O     0.950000000     6.487000000     2.517000000
H     0.260000000     5.836000000     2.384000000
H     1.584000000     6.050000000     3.085000000
O    -2.537000000    -1.240000000    -5.660000000
H    -2.226000000    -0.377000000    -5.933000000
H    -1.740000000    -1.729000000    -5.458000000
O     3.138000000     2.462000000    -3.040000000
H     3.012000000     2.324000000    -3.979000000
H     2.803000000     3.345000000    -2.881000000
O     1.534000000     0.194000000     4.322000000
H     2.185000000     0.603000000     3.752000000
H     0.712000000     0.632000000     4.099000000
O     3.461000000    -1.107000000    -2.883000000
H     2.978000000    -0.449000000    -3.383000000
H     3.726000000    -0.653000000    -2.083000000
O     2.411000000     0.231000000     7.138000000
H     1.528000000     0.064000000     7.469000000
H     2.279000000     0.502000000     6.230000000
O    -2.997000000    -0.557000000     3.448000000
H    -2.183000000    -0.083000000     3.616000000
H    -2.775000000    -1.476000000     3.600000000
O    -0.309000000    -4.682000000     0.651000000
H    -0.028000000    -3.791000000     0.444000000
H     0.488000000    -5.208000000     0.575000000
O    -6.172000000     2.472000000     2.828000000
H    -5.331000000     2.455000000     3.286000000
H    -5.969000000     2.165000000     1.944000000
O    -3.467000000    -4.290000000    -4.878000000
H    -3.062000000    -4.076000000    -4.037000000
H    -3.315000000    -3.516000000    -5.420000000
O    -0.693000000     3.203000000    -4.544000000
H    -1.559000000     2.798000000    -4.487000000
H    -0.554000000     3.594000000    -3.681000000
O    -1.974000000     4.536000000     3.903000000
H    -1.516000000     3.947000000     3.303000000
H    -1.585000000     5.395000000     3.738000000
O    -1.565000000     8.007000000     2.394000000
H    -1.477000000     7.258000000     1.804000000
H    -0.678000000     8.160000000     2.720000000
O     0.630000000     7.130000000    -0.212000000
H     0.828000000     7.023000000     0.718000000
H    -0.284000000     6.858000000    -0.295000000
O     5.297000000    -0.505000000     0.042000000
H     5.436000000    -0.765000000     0.953000000
H     4.503000000     0.029000000     0.063000000
O     3.437000000    -4.064000000    -1.696000000
H     3.327000000    -3.826000000    -0.776000000
H     4.382000000    -4.028000000    -1.842000000
O     6.250000000    -1.411000000    -3.318000000
H     5.336000000    -1.539000000    -3.062000000
H     6.247000000    -1.507000000    -4.270000000
O    -1.911000000     6.079000000    -1.409000000
H    -1.439000000     5.561000000    -2.060000000
H    -2.689000000     6.392000000    -1.870000000
O     0.136000000    -2.283000000    -5.569000000
H     0.652000000    -2.798000000    -4.949000000
H     0.725000000    -1.580000000    -5.845000000
O     2.935000000    -3.207000000     0.730000000
H     2.792000000    -2.361000000     0.306000000
H     3.196000000    -2.986000000     1.624000000
O     1.012000000     4.212000000    -1.810000000
H     1.791000000     4.650000000    -2.154000000
H     1.227000000     4.024000000    -0.896000000
O     0.241000000    -3.742000000     3.417000000
H     0.231000000    -4.305000000     2.643000000
H    -0.583000000    -3.256000000     3.370000000
O     1.590000000    -6.705000000    -0.067000000
H     1.580000000    -6.568000000    -1.014000000
H     1.353000000    -7.625000000     0.045000000
O     1.925000000     3.552000000     0.820000000
H     1.091000000     3.515000000     1.288000000
H     2.539000000     3.924000000     1.454000000
