158
-3029.94917
C    -0.571000000     1.267000000     0.387000000
H    -1.064000000     2.236000000     0.395000000
C     0.141000000     1.030000000    -0.737000000
H     0.261000000     1.872000000    -1.414000000
C     0.736000000    -0.216000000    -0.912000000
H     1.141000000    -0.392000000    -1.935000000
C     0.619000000    -1.227000000     0.009000000
H     1.109000000    -2.158000000    -0.261000000
C    -0.105000000    -0.981000000     1.219000000
H    -0.250000000    -1.679000000     2.040000000
C    -0.718000000     0.241000000     1.283000000
C    -1.717000000     0.548000000     2.395000000
O    -2.401000000     1.514000000     2.398000000
O    -1.933000000    -0.365000000     3.208000000
O    -4.130000000    -3.990000000    -0.073000000
H    -4.922000000    -4.480000000     0.148000000
H    -3.934000000    -3.484000000     0.716000000
O     1.240000000    -4.100000000     5.197000000
H     1.048000000    -4.599000000     4.403000000
H     0.835000000    -3.246000000     5.047000000
O    -5.543000000    -2.428000000     5.872000000
H    -5.822000000    -3.223000000     5.417000000
H    -4.649000000    -2.277000000     5.563000000
O    -2.364000000    -1.201000000    -5.518000000
H    -1.967000000    -1.774000000    -6.174000000
H    -2.855000000    -0.556000000    -6.028000000
O    -3.574000000    -1.707000000     1.534000000
H    -4.279000000    -1.384000000     2.095000000
H    -2.827000000    -1.809000000     2.123000000
O    -4.600000000    -0.350000000    -0.736000000
H    -4.713000000    -0.860000000     0.066000000
H    -3.722000000    -0.577000000    -1.042000000
O     5.762000000     2.103000000    -4.224000000
H     5.998000000     1.607000000    -5.007000000
H     5.029000000     2.653000000    -4.500000000
O    -1.085000000     1.611000000     5.517000000
H    -1.451000000     0.872000000     5.030000000
H    -1.173000000     2.356000000     4.923000000
O     0.851000000     2.506000000    -4.341000000
H     1.325000000     1.744000000    -4.674000000
H     0.060000000     2.550000000    -4.878000000
O     3.677000000     1.190000000     0.809000000
H     3.436000000     0.963000000    -0.090000000
H     2.841000000     1.276000000     1.266000000
O    -4.434000000     2.189000000     0.356000000
H    -3.858000000     1.846000000     1.040000000
H    -4.616000000     1.434000000    -0.204000000
O     1.368000000    -4.791000000    -3.407000000
H     1.776000000    -3.949000000    -3.207000000
H     0.966000000    -4.664000000    -4.266000000
O    -2.745000000    -0.270000000     7.952000000
H    -1.823000000    -0.019000000     8.006000000
H    -2.823000000    -0.715000000     7.108000000
O     2.394000000    -0.584000000     3.570000000
H     1.911000000     0.225000000     3.404000000
H     3.113000000    -0.320000000     4.145000000
O     0.117000000     5.448000000    -4.328000000
H     0.126000000     4.502000000    -4.473000000
H     0.981000000     5.743000000    -4.617000000
O    -0.748000000     3.643000000     3.465000000
H    -1.318000000     2.973000000     3.086000000
H    -0.873000000     4.408000000     2.904000000
O    -4.475000000     1.608000000     4.219000000
H    -4.103000000     2.380000000     4.645000000
H    -3.786000000     1.305000000     3.627000000
O    -2.534000000    -4.223000000     3.215000000
H    -3.102000000    -3.506000000     3.496000000
H    -3.046000000    -5.014000000     3.380000000
O    -5.975000000    -0.250000000     2.716000000
H    -5.570000000     0.511000000     3.133000000
H    -6.911000000    -0.048000000     2.706000000
O     2.304000000     0.688000000    -6.026000000
H     2.289000000     1.403000000    -6.663000000
H     2.409000000    -0.102000000    -6.555000000
O    -6.840000000     3.611000000     3.424000000
H    -7.249000000     2.973000000     4.009000000
H    -5.900000000     3.476000000     3.543000000
O    -3.177000000     3.214000000    -2.065000000
H    -3.571000000     2.842000000    -1.277000000
H    -2.562000000     2.545000000    -2.365000000
O    -2.050000000    -0.866000000    -1.739000000
H    -1.902000000    -0.164000000    -2.372000000
H    -1.369000000    -0.742000000    -1.079000000
O     3.570000000     1.442000000    -2.164000000
H     3.052000000     2.120000000    -2.599000000
H     4.467000000     1.775000000    -2.188000000
O    -5.239000000     5.240000000    -1.412000000
H    -4.515000000     4.620000000    -1.505000000
H    -5.995000000     4.694000000    -1.198000000
O     0.015000000    -1.580000000     4.673000000
H     0.877000000    -1.337000000     4.334000000
H    -0.601000000    -1.249000000     4.020000000
O     3.670000000    -0.396000000    -4.142000000
H     3.613000000     0.365000000    -3.564000000
H     3.256000000    -0.109000000    -4.956000000
O     6.451000000    -1.012000000    -2.414000000
H     5.756000000    -0.935000000    -3.068000000
H     7.203000000    -1.346000000    -2.903000000
O    -1.612000000     5.600000000    -1.663000000
H    -1.913000000     4.716000000    -1.874000000
H    -0.742000000     5.658000000    -2.058000000
O     3.363000000    -5.554000000     0.375000000
H     3.966000000    -5.192000000    -0.274000000
H     3.516000000    -5.031000000     1.162000000
O    -0.186000000    -1.024000000     7.659000000
H    -0.269000000    -1.855000000     8.125000000
H     0.011000000    -1.274000000     6.756000000
O    -3.073000000    -1.837000000     5.073000000
H    -2.658000000    -1.253000000     4.438000000
H    -2.350000000    -2.352000000     5.433000000
O     3.533000000     4.020000000    -2.892000000
H     4.016000000     4.815000000    -2.667000000
H     3.472000000     4.039000000    -3.847000000
O    -1.166000000     2.345000000    -5.901000000
H    -2.104000000     2.158000000    -5.869000000
H    -1.074000000     2.988000000    -6.604000000
O     0.465000000    -5.647000000     0.515000000
H     1.377000000    -5.427000000     0.326000000
H     0.192000000    -6.192000000    -0.222000000
O     7.330000000     1.824000000    -1.734000000
H     7.042000000     1.899000000    -0.824000000
H     6.676000000     1.260000000    -2.147000000
O     4.671000000    -4.948000000    -1.871000000
H     4.270000000    -4.126000000    -2.150000000
H     4.247000000    -5.616000000    -2.410000000
O    -3.746000000    -2.836000000    -2.483000000
H    -3.843000000    -3.394000000    -1.711000000
H    -3.152000000    -2.140000000    -2.202000000
O    -1.846000000     1.167000000    -3.475000000
H    -1.116000000     1.739000000    -3.711000000
H    -1.914000000     0.551000000    -4.204000000
O    -4.304000000     4.704000000     4.560000000
H    -4.217000000     5.095000000     3.691000000
H    -3.873000000     5.325000000     5.146000000
O     2.997000000    -2.665000000    -2.916000000
H     2.515000000    -2.171000000    -2.253000000
H     3.443000000    -1.997000000    -3.436000000
O    -0.777000000     5.597000000     1.254000000
H    -1.314000000     5.718000000     0.471000000
H    -0.109000000     4.963000000     0.992000000
O    -3.025000000    -3.805000000    -4.835000000
H    -2.893000000    -2.863000000    -4.735000000
H    -3.466000000    -4.073000000    -4.029000000
O     3.455000000    -3.129000000     2.162000000
H     2.758000000    -2.638000000     2.597000000
H     4.165000000    -2.495000000     2.058000000
O     1.328000000     3.838000000     0.451000000
H     2.045000000     3.482000000     0.976000000
H     1.753000000     4.176000000    -0.337000000
O     0.158000000    -5.071000000     3.025000000
H     0.216000000    -5.194000000     2.078000000
H    -0.758000000    -4.842000000     3.182000000
O    -6.814000000     3.555000000     0.531000000
H    -5.907000000     3.278000000     0.404000000
H    -6.833000000     3.915000000     1.417000000
O     1.650000000     2.092000000     3.040000000
H     0.811000000     2.547000000     3.102000000
H     2.110000000     2.326000000     3.846000000
