158
-3064.59775
C     0.174000000     0.573000000     1.352000000
H     0.362000000     1.141000000     2.259000000
C     1.052000000     0.749000000     0.264000000
H     2.028000000     1.220000000     0.348000000
C     0.735000000     0.234000000    -0.970000000
H     1.333000000     0.411000000    -1.847000000
C    -0.426000000    -0.566000000    -1.087000000
H    -0.756000000    -0.892000000    -2.070000000
C    -1.242000000    -0.795000000     0.023000000
H    -2.090000000    -1.463000000    -0.106000000
C    -0.965000000    -0.278000000     1.294000000
C    -1.879000000    -0.445000000     2.443000000
O    -1.636000000     0.061000000     3.551000000
O    -2.798000000    -1.231000000     2.321000000
O     4.275000000    -1.800000000    -6.809000000
H     4.575000000    -1.215000000    -7.505000000
H     4.161000000    -1.229000000    -6.049000000
O     3.106000000     0.156000000    -4.337000000
H     3.127000000     0.922000000    -4.911000000
H     2.178000000    -0.071000000    -4.274000000
O    -0.377000000     2.448000000     7.003000000
H     0.378000000     2.958000000     7.297000000
H    -0.970000000     2.445000000     7.754000000
O    -0.108000000    -5.151000000     3.328000000
H     0.276000000    -4.743000000     4.103000000
H    -1.023000000    -5.302000000     3.564000000
O    -4.818000000    -1.295000000     0.368000000
H    -5.310000000    -0.510000000     0.127000000
H    -4.323000000    -1.039000000     1.146000000
O     1.566000000    -0.197000000     6.400000000
H     1.645000000     0.446000000     5.695000000
H     0.625000000    -0.260000000     6.563000000
O     0.892000000    -2.234000000    -4.352000000
H     0.116000000    -2.763000000    -4.166000000
H     1.621000000    -2.852000000    -4.301000000
O    -4.364000000    -0.261000000    -3.259000000
H    -3.855000000    -0.649000000    -3.971000000
H    -4.822000000    -1.002000000    -2.861000000
O     2.916000000    -4.167000000    -4.113000000
H     2.669000000    -5.007000000    -3.727000000
H     3.822000000    -4.032000000    -3.833000000
O     3.724000000     6.158000000     1.212000000
H     3.781000000     5.260000000     1.538000000
H     2.868000000     6.467000000     1.508000000
O    -5.322000000    -4.665000000     3.538000000
H    -5.124000000    -4.713000000     2.602000000
H    -6.201000000    -4.289000000     3.578000000
O     5.254000000    -0.694000000    -2.804000000
H     4.830000000    -1.336000000    -2.234000000
H     4.624000000    -0.550000000    -3.511000000
O    -1.042000000     2.931000000     3.941000000
H    -0.789000000     2.673000000     4.828000000
H    -1.384000000     2.128000000     3.547000000
O     3.931000000    -2.619000000    -0.698000000
H     3.105000000    -3.103000000    -0.691000000
H     4.465000000    -3.048000000    -0.029000000
O     3.857000000     4.104000000    -1.189000000
H     4.154000000     4.283000000    -0.297000000
H     4.035000000     3.172000000    -1.317000000
O     0.192000000    -5.352000000     0.481000000
H     0.657000000    -4.523000000     0.590000000
H     0.288000000    -5.794000000     1.325000000
O    -2.072000000    -5.732000000    -0.909000000
H    -1.709000000    -6.536000000    -1.282000000
H    -1.465000000    -5.498000000    -0.208000000
O    -5.783000000    -2.492000000     6.775000000
H    -5.207000000    -2.239000000     6.053000000
H    -5.213000000    -2.961000000     7.383000000
O    -2.423000000    -3.774000000     1.251000000
H    -1.626000000    -4.300000000     1.317000000
H    -2.291000000    -3.060000000     1.875000000
O     0.728000000     3.959000000     2.124000000
H     0.169000000     3.819000000     2.888000000
H     0.386000000     4.757000000     1.720000000
O    -3.067000000     4.531000000     3.568000000
H    -3.576000000     4.046000000     4.217000000
H    -2.168000000     4.227000000     3.693000000
O    -5.401000000     1.094000000    -0.722000000
H    -4.457000000     1.157000000    -0.574000000
H    -5.523000000     1.393000000    -1.623000000
O     3.673000000    -1.252000000     3.713000000
H     3.818000000    -1.736000000     4.526000000
H     2.732000000    -1.076000000     3.703000000
O    -2.701000000    -6.041000000     3.500000000
H    -3.534000000    -5.584000000     3.623000000
H    -2.729000000    -6.763000000     4.127000000
O     0.684000000     2.247000000    -6.929000000
H     0.616000000     3.191000000    -7.073000000
H     1.607000000     2.047000000    -7.083000000
O    -7.675000000    -0.850000000     0.993000000
H    -6.997000000    -1.464000000     1.275000000
H    -7.889000000    -0.351000000     1.781000000
O    -2.626000000     1.518000000    -2.091000000
H    -3.227000000     0.942000000    -2.563000000
H    -1.886000000     0.956000000    -1.862000000
O    -0.971000000     0.327000000    -4.604000000
H    -0.382000000    -0.398000000    -4.812000000
H    -1.826000000     0.041000000    -4.926000000
O    -2.855000000    -2.054000000     6.874000000
H    -2.233000000    -1.328000000     6.822000000
H    -3.353000000    -2.002000000     6.059000000
O    -5.161000000    -3.959000000     0.658000000
H    -4.263000000    -4.287000000     0.624000000
H    -5.068000000    -3.014000000     0.779000000
O     0.960000000    -1.637000000     3.568000000
H     0.456000000    -1.114000000     4.191000000
H     0.754000000    -2.544000000     3.796000000
O     5.492000000    -3.625000000    -3.133000000
H     6.089000000    -2.892000000    -2.988000000
H     5.773000000    -4.291000000    -2.505000000
O    -1.179000000    -0.109000000     5.965000000
H    -1.461000000    -0.131000000     5.051000000
H    -0.812000000     0.767000000     6.082000000
O    -6.713000000     0.821000000     3.230000000
H    -6.739000000     1.529000000     2.586000000
H    -5.872000000     0.931000000     3.673000000
O     3.298000000     3.512000000     1.473000000
H     3.672000000     2.643000000     1.616000000
H     2.352000000     3.379000000     1.536000000
O     2.168000000     1.879000000     4.656000000
H     2.254000000     1.411000000     3.825000000
H     2.346000000     2.794000000     4.434000000
O     4.909000000    -0.110000000     0.313000000
H     5.084000000     0.467000000    -0.430000000
H     4.461000000    -0.864000000    -0.070000000
O    -2.124000000     4.057000000    -3.135000000
H    -1.202000000     3.984000000    -3.384000000
H    -2.383000000     3.163000000    -2.911000000
O     4.262000000     0.971000000     2.414000000
H     4.246000000     0.111000000     2.835000000
H     4.466000000     0.785000000     1.498000000
O    -1.253000000    -3.756000000    -3.174000000
H    -1.849000000    -4.043000000    -2.482000000
H    -1.570000000    -2.886000000    -3.417000000
O    -3.644000000    -2.684000000    -1.709000000
H    -3.094000000    -3.200000000    -1.119000000
H    -4.329000000    -2.324000000    -1.145000000
O    -4.246000000     1.481000000     4.521000000
H    -3.920000000     1.661000000     5.403000000
H    -3.546000000     0.977000000     4.106000000
O     0.887000000     2.276000000    -4.099000000
H     0.144000000     1.865000000    -3.657000000
H     0.653000000     2.259000000    -5.027000000
O     1.581000000     5.630000000    -0.791000000
H     1.036000000     5.837000000    -0.032000000
H     2.194000000     4.968000000    -0.472000000
O     5.431000000     1.745000000    -1.722000000
H     5.945000000     2.358000000    -2.247000000
H     5.270000000     1.005000000    -2.308000000
O     1.482000000     5.188000000    -3.610000000
H     1.610000000     5.486000000    -2.709000000
H     1.460000000     4.234000000    -3.546000000
O     0.823000000    -2.740000000     0.839000000
H     0.432000000    -2.025000000     0.338000000
H     1.237000000    -2.310000000     1.588000000
O    -4.021000000    -2.144000000     4.433000000
H    -4.293000000    -3.022000000     4.165000000
H    -3.498000000    -1.822000000     3.699000000
