158
-3000.40494
C    -1.390000000     0.355000000     0.586000000
H    -2.389000000     0.556000000     0.963000000
C    -0.748000000     1.002000000    -0.469000000
H    -1.292000000     1.757000000    -1.031000000
C     0.570000000     0.681000000    -0.863000000
H     1.103000000     1.210000000    -1.660000000
C     1.159000000    -0.398000000    -0.281000000
H     2.145000000    -0.644000000    -0.668000000
C     0.561000000    -1.108000000     0.766000000
H     1.019000000    -2.008000000     1.169000000
C    -0.708000000    -0.672000000     1.223000000
C    -1.308000000    -1.465000000     2.324000000
O    -2.503000000    -1.292000000     2.486000000
O    -0.825000000    -2.475000000     2.798000000
O    -1.303000000     3.428000000     2.188000000
H    -1.744000000     4.258000000     2.009000000
H    -1.978000000     2.880000000     2.588000000
O     4.050000000     6.002000000    -2.849000000
H     3.938000000     6.707000000    -3.487000000
H     3.915000000     5.200000000    -3.352000000
O     1.883000000    -6.644000000     4.142000000
H     1.569000000    -5.794000000     3.831000000
H     2.473000000    -6.431000000     4.865000000
O     0.655000000    -5.176000000    -0.150000000
H    -0.189000000    -5.400000000     0.243000000
H     0.569000000    -5.440000000    -1.066000000
O     0.774000000    -3.798000000     6.663000000
H     1.670000000    -3.482000000     6.554000000
H     0.287000000    -3.036000000     6.977000000
O     1.219000000    -0.923000000     4.319000000
H     0.548000000    -1.552000000     4.053000000
H     1.800000000    -0.857000000     3.562000000
O    -0.313000000     1.705000000    -5.751000000
H    -0.208000000     2.347000000    -6.453000000
H    -0.054000000     0.873000000    -6.146000000
O     2.553000000    -2.870000000    -2.972000000
H     3.059000000    -3.308000000    -3.657000000
H     2.716000000    -1.937000000    -3.114000000
O    -1.460000000     4.835000000    -3.733000000
H    -0.842000000     4.299000000    -3.237000000
H    -2.025000000     4.202000000    -4.177000000
O    -3.629000000     3.360000000    -4.782000000
H    -3.789000000     3.478000000    -3.846000000
H    -3.445000000     2.425000000    -4.878000000
O    -1.103000000    -2.020000000     7.269000000
H    -1.673000000    -1.890000000     8.027000000
H    -1.675000000    -2.398000000     6.601000000
O     3.015000000     3.373000000    -6.070000000
H     3.896000000     3.173000000    -6.388000000
H     2.433000000     3.046000000    -6.756000000
O     3.194000000    -3.451000000     0.161000000
H     2.482000000    -4.091000000     0.139000000
H     3.565000000    -3.474000000    -0.721000000
O    -5.696000000     1.821000000     2.506000000
H    -6.475000000     1.806000000     1.950000000
H    -6.038000000     1.923000000     3.394000000
O    -0.036000000    -3.896000000    -3.019000000
H     0.884000000    -3.646000000    -2.940000000
H    -0.055000000    -4.512000000    -3.752000000
O    -2.114000000    -6.511000000     4.355000000
H    -2.843000000    -7.062000000     4.640000000
H    -2.392000000    -5.619000000     4.564000000
O    -1.667000000    -4.939000000     1.354000000
H    -2.325000000    -5.546000000     1.692000000
H    -1.649000000    -4.226000000     1.993000000
O     4.180000000     1.258000000     1.533000000
H     3.255000000     1.487000000     1.625000000
H     4.300000000     1.118000000     0.594000000
O    -3.025000000     1.969000000     3.451000000
H    -2.901000000     1.108000000     3.851000000
H    -3.872000000     1.907000000     3.009000000
O    -1.370000000    -1.504000000    -2.593000000
H    -0.848000000    -1.008000000    -1.963000000
H    -0.750000000    -2.116000000    -2.989000000
O     2.272000000    -7.218000000     0.577000000
H     1.823000000    -6.381000000     0.459000000
H     2.174000000    -7.414000000     1.508000000
O    -4.998000000    -0.874000000     4.620000000
H    -5.066000000    -1.778000000     4.928000000
H    -4.082000000    -0.639000000     4.767000000
O    -3.441000000    -3.883000000     4.696000000
H    -3.625000000    -3.610000000     3.797000000
H    -4.246000000    -4.313000000     4.985000000
O    -0.109000000     7.068000000    -2.520000000
H    -0.173000000     7.020000000    -1.566000000
H     0.078000000     6.170000000    -2.793000000
O     5.978000000    -1.916000000    -0.237000000
H     5.055000000    -2.133000000    -0.104000000
H     6.260000000    -2.491000000    -0.948000000
O     1.296000000    -4.219000000     3.196000000
H     1.859000000    -4.204000000     2.422000000
H     0.570000000    -3.636000000     2.976000000
O    -6.194000000    -1.760000000    -1.043000000
H    -5.549000000    -2.256000000    -1.547000000
H    -5.672000000    -1.151000000    -0.520000000
O    -4.512000000     0.937000000    -1.742000000
H    -4.331000000     0.235000000    -2.368000000
H    -4.034000000     0.683000000    -0.953000000
O    -2.857000000     0.950000000    -5.153000000
H    -2.883000000     0.061000000    -5.507000000
H    -1.952000000     1.066000000    -4.864000000
O    -4.045000000    -3.299000000     1.990000000
H    -3.245000000    -2.775000000     2.034000000
H    -4.724000000    -2.677000000     1.729000000
O     2.556000000     2.693000000    -3.622000000
H     2.641000000     1.745000000    -3.726000000
H     2.718000000     3.045000000    -4.497000000
O     3.659000000    -0.178000000    -3.906000000
H     4.609000000    -0.125000000    -3.801000000
H     3.532000000    -0.423000000    -4.822000000
O     1.540000000     2.388000000     1.852000000
H     0.899000000     3.098000000     1.894000000
H     1.253000000     1.850000000     1.114000000
O     3.553000000    -3.128000000     4.463000000
H     2.876000000    -3.783000000     4.292000000
H     3.717000000    -2.725000000     3.610000000
O     0.924000000     1.979000000     4.619000000
H     0.975000000     1.060000000     4.355000000
H     1.609000000     2.413000000     4.112000000
O    -5.378000000    -5.643000000     2.762000000
H    -4.749000000    -4.988000000     2.458000000
H    -5.753000000    -5.263000000     3.557000000
O    -2.670000000    -3.643000000    -1.091000000
H    -2.148000000    -3.048000000    -1.628000000
H    -2.166000000    -3.741000000    -0.283000000
O    -4.895000000     4.860000000     0.233000000
H    -5.169000000     4.209000000     0.879000000
H    -5.712000000     5.164000000    -0.162000000
O     4.006000000     1.447000000    -1.215000000
H     4.314000000     0.837000000    -1.886000000
H     3.457000000     2.070000000    -1.692000000
O     3.804000000    -0.976000000    -6.451000000
H     3.060000000    -1.412000000    -6.864000000
H     4.025000000    -0.261000000    -7.048000000
O    -4.369000000     3.690000000    -2.296000000
H    -4.691000000     2.832000000    -2.022000000
H    -4.403000000     4.224000000    -1.502000000
O     2.175000000     6.054000000    -1.017000000
H     2.684000000     6.234000000    -0.227000000
H     2.810000000     6.123000000    -1.731000000
O    -1.423000000     2.752000000     5.795000000
H    -2.021000000     2.805000000     5.049000000
H    -0.585000000     2.495000000     5.411000000
O    -4.853000000    -0.619000000     1.237000000
H    -4.173000000    -0.577000000     1.909000000
H    -5.336000000     0.202000000     1.333000000
O     1.421000000    -0.549000000     7.087000000
H     0.636000000    -0.956000000     7.454000000
H     1.253000000    -0.512000000     6.145000000
O    -2.310000000    -0.228000000     5.004000000
H    -1.436000000    -0.331000000     5.382000000
H    -2.270000000    -0.707000000     4.176000000
O     0.655000000     4.148000000    -2.308000000
H     1.307000000     3.494000000    -2.563000000
H     1.078000000     4.649000000    -1.611000000
O     3.622000000    -1.515000000     2.271000000
H     3.355000000    -1.867000000     1.422000000
H     3.731000000    -0.576000000     2.118000000
