158
-3019.25198
C    -0.733000000     0.783000000     1.024000000
H    -1.151000000     1.476000000     1.749000000
C    -0.005000000     1.288000000    -0.095000000
H     0.117000000     2.337000000    -0.352000000
C     0.640000000     0.454000000    -0.968000000
H     1.242000000     0.845000000    -1.803000000
C     0.466000000    -0.919000000    -0.793000000
H     0.795000000    -1.625000000    -1.552000000
C    -0.345000000    -1.414000000     0.200000000
H    -0.542000000    -2.476000000     0.323000000
C    -0.818000000    -0.621000000     1.213000000
C    -1.430000000    -1.182000000     2.474000000
O    -1.682000000    -0.480000000     3.433000000
O    -1.643000000    -2.330000000     2.589000000
O     1.278000000     3.797000000     3.083000000
H     0.876000000     3.023000000     3.476000000
H     1.808000000     4.175000000     3.785000000
O     0.533000000     2.974000000     6.378000000
H     1.043000000     3.730000000     6.085000000
H     0.340000000     2.490000000     5.576000000
O     1.082000000    -6.184000000    -1.367000000
H     1.584000000    -5.380000000    -1.235000000
H     0.175000000    -5.890000000    -1.453000000
O    -1.304000000    -5.013000000     2.604000000
H    -1.559000000    -4.091000000     2.638000000
H    -1.667000000    -5.333000000     1.778000000
O    -2.490000000     5.329000000    -2.249000000
H    -2.653000000     5.224000000    -3.187000000
H    -2.625000000     4.455000000    -1.883000000
O    -0.687000000     0.264000000    -4.411000000
H    -0.066000000    -0.463000000    -4.465000000
H    -0.897000000     0.468000000    -5.322000000
O    -2.426000000    -2.065000000    -3.541000000
H    -2.467000000    -1.886000000    -4.481000000
H    -3.152000000    -2.668000000    -3.380000000
O    -2.366000000    -7.165000000     3.887000000
H    -1.992000000    -6.385000000     3.476000000
H    -3.302000000    -7.114000000     3.689000000
O     4.372000000    -0.223000000    -2.662000000
H     3.771000000    -0.968000000    -2.620000000
H     5.234000000    -0.601000000    -2.489000000
O     1.211000000     7.349000000     0.266000000
H     0.558000000     7.481000000     0.954000000
H     0.777000000     6.780000000    -0.370000000
O    -2.943000000     3.447000000     3.280000000
H    -3.649000000     2.846000000     3.042000000
H    -2.875000000     3.372000000     4.232000000
O     2.328000000    -2.230000000    -3.505000000
H     1.393000000    -2.317000000    -3.690000000
H     2.748000000    -2.290000000    -4.363000000
O     0.939000000    -5.599000000    -5.082000000
H     0.808000000    -5.035000000    -4.319000000
H     0.058000000    -5.746000000    -5.425000000
O     0.258000000    -2.244000000    -5.755000000
H     0.961000000    -2.840000000    -5.496000000
H     0.357000000    -2.154000000    -6.703000000
O    -5.467000000    -5.670000000     2.949000000
H    -5.948000000    -5.781000000     3.769000000
H    -4.944000000    -4.879000000     3.084000000
O    -3.999000000    -2.910000000     7.654000000
H    -3.249000000    -2.498000000     7.224000000
H    -3.927000000    -2.640000000     8.570000000
O    -0.068000000    -3.822000000    -3.150000000
H    -0.404000000    -4.314000000    -2.401000000
H    -0.736000000    -3.159000000    -3.320000000
O     4.807000000     0.671000000     1.801000000
H     3.910000000     0.349000000     1.708000000
H     4.924000000     1.270000000     1.064000000
O    -3.829000000     0.896000000     4.121000000
H    -3.114000000     0.376000000     3.754000000
H    -3.768000000     0.753000000     5.065000000
O    -2.974000000     2.834000000    -1.554000000
H    -3.018000000     1.973000000    -1.138000000
H    -2.450000000     2.693000000    -2.342000000
O    -5.656000000    -1.119000000     3.582000000
H    -4.862000000    -0.587000000     3.635000000
H    -5.929000000    -1.234000000     4.492000000
O     2.347000000    -6.186000000     1.125000000
H     1.994000000    -7.065000000     1.263000000
H     1.997000000    -5.919000000     0.274000000
O    -2.881000000     0.315000000     6.710000000
H    -1.935000000     0.332000000     6.854000000
H    -3.256000000     0.602000000     7.542000000
O    -4.227000000     4.074000000     0.772000000
H    -4.730000000     3.266000000     0.872000000
H    -3.605000000     3.884000000     0.070000000
O     1.549000000     3.785000000    -2.979000000
H     2.271000000     3.201000000    -3.212000000
H     0.784000000     3.212000000    -2.931000000
O     4.286000000     2.448000000    -2.993000000
H     4.178000000     1.510000000    -3.152000000
H     5.004000000     2.708000000    -3.570000000
O     2.400000000    -0.337000000     1.546000000
H     2.140000000    -1.014000000     2.171000000
H     1.653000000    -0.260000000     0.953000000
O    -1.569000000    -5.179000000    -1.373000000
H    -2.164000000    -5.912000000    -1.530000000
H    -2.093000000    -4.545000000    -0.883000000
O     1.733000000    -3.595000000     1.448000000
H     1.765000000    -3.086000000     2.258000000
H     1.813000000    -4.505000000     1.733000000
O     4.734000000    -5.387000000    -2.699000000
H     4.548000000    -6.316000000    -2.560000000
H     3.942000000    -4.938000000    -2.405000000
O     4.255000000     2.026000000    -6.440000000
H     3.376000000     2.190000000    -6.099000000
H     4.406000000     2.734000000    -7.066000000
O     0.226000000     1.192000000     4.214000000
H    -0.608000000     0.807000000     3.947000000
H     0.888000000     0.599000000     3.858000000
O    -4.017000000    -3.293000000     3.171000000
H    -4.627000000    -2.557000000     3.115000000
H    -3.193000000    -2.947000000     2.827000000
O    -0.358000000     5.547000000    -4.744000000
H     0.225000000     4.913000000    -4.326000000
H    -1.033000000     5.012000000    -5.162000000
O     1.329000000    -1.565000000     3.936000000
H     1.779000000    -1.591000000     4.781000000
H     0.460000000    -1.924000000     4.117000000
O    -1.060000000     4.979000000     1.990000000
H    -0.316000000     4.654000000     2.496000000
H    -1.823000000     4.561000000     2.390000000
O    -2.581000000     0.006000000    -1.399000000
H    -2.329000000    -0.508000000    -2.166000000
H    -1.756000000     0.179000000    -0.945000000
O    -1.052000000     2.769000000    -3.500000000
H    -1.725000000     3.059000000    -4.116000000
H    -0.914000000     1.846000000    -3.714000000
O    -1.943000000    -3.048000000     5.646000000
H    -2.028000000    -2.258000000     5.113000000
H    -2.326000000    -3.742000000     5.109000000
O     2.002000000     4.164000000     0.329000000
H     1.171000000     4.491000000    -0.015000000
H     1.833000000     4.012000000     1.259000000
O    -5.500000000     1.836000000     1.811000000
H    -5.006000000     1.130000000     2.228000000
H    -5.909000000     2.305000000     2.539000000
O     0.876000000    -5.676000000     4.299000000
H     0.042000000    -5.513000000     3.859000000
H     0.636000000    -6.138000000     5.102000000
O    -3.144000000    -3.410000000     0.007000000
H    -3.317000000    -2.809000000    -0.717000000
H    -3.990000000    -3.513000000     0.441000000
O     4.407000000     2.751000000    -0.169000000
H     3.452000000     2.762000000    -0.105000000
H     4.584000000     2.608000000    -1.098000000
O     3.233000000     5.714000000    -1.549000000
H     3.159000000     5.067000000    -2.250000000
H     2.797000000     5.308000000    -0.800000000
O     0.282000000     5.519000000    -1.476000000
H    -0.643000000     5.384000000    -1.679000000
H     0.749000000     4.986000000    -2.119000000
O     2.984000000    -3.939000000    -1.060000000
H     2.768000000    -3.534000000    -0.220000000
H     2.781000000    -3.266000000    -1.709000000
O     0.156000000    -3.527000000     7.373000000
H    -0.614000000    -3.382000000     6.824000000
H     0.672000000    -2.727000000     7.278000000
