158
-3032.53812
C     1.115000000     0.049000000    -0.978000000
H     2.041000000     0.186000000    -1.532000000
C     1.149000000    -0.504000000     0.297000000
H     2.086000000    -0.887000000     0.693000000
C     0.013000000    -0.499000000     1.121000000
H    -0.002000000    -0.826000000     2.155000000
C    -1.119000000     0.074000000     0.674000000
H    -1.988000000    -0.034000000     1.318000000
C    -1.107000000     0.780000000    -0.516000000
H    -2.052000000     1.243000000    -0.788000000
C    -0.045000000     0.635000000    -1.403000000
C    -0.271000000     1.226000000    -2.787000000
O    -1.194000000     2.008000000    -3.055000000
O     0.670000000     1.178000000    -3.606000000
O     1.869000000     3.052000000    -2.081000000
H     1.462000000     2.332000000    -2.563000000
H     1.887000000     3.778000000    -2.705000000
O    -2.389000000     5.067000000    -0.480000000
H    -2.338000000     4.554000000     0.327000000
H    -3.178000000     4.748000000    -0.917000000
O    -4.452000000    -1.042000000     0.793000000
H    -5.342000000    -1.378000000     0.899000000
H    -4.472000000    -0.572000000    -0.040000000
O    -6.118000000     1.806000000    -3.424000000
H    -5.333000000     2.180000000    -3.825000000
H    -6.308000000     2.382000000    -2.684000000
O    -4.330000000     0.899000000    -6.592000000
H    -4.571000000     0.092000000    -6.136000000
H    -4.186000000     1.536000000    -5.892000000
O    -0.254000000    -6.575000000     3.061000000
H     0.680000000    -6.366000000     3.082000000
H    -0.631000000    -6.058000000     3.773000000
O    -0.439000000     6.693000000    -1.713000000
H    -1.059000000     6.007000000    -1.464000000
H    -0.215000000     7.125000000    -0.889000000
O     0.731000000    -3.186000000     4.605000000
H     1.319000000    -3.657000000     4.014000000
H     0.342000000    -3.869000000     5.150000000
O    -0.073000000     5.229000000     1.848000000
H     0.150000000     4.381000000     1.464000000
H     0.667000000     5.435000000     2.419000000
O    -1.348000000     0.275000000     7.558000000
H    -2.163000000     0.712000000     7.310000000
H    -1.264000000     0.438000000     8.497000000
O     2.121000000    -0.094000000    -7.411000000
H     2.412000000     0.527000000    -6.744000000
H     2.258000000    -0.954000000    -7.013000000
O    -0.395000000     5.108000000    -4.368000000
H    -1.053000000     4.734000000    -3.782000000
H    -0.061000000     4.360000000    -4.862000000
O    -5.017000000    -0.220000000    -1.950000000
H    -4.235000000    -0.581000000    -2.368000000
H    -5.229000000     0.556000000    -2.469000000
O     1.776000000     4.150000000    -6.262000000
H     1.645000000     5.054000000    -5.976000000
H     2.134000000     4.228000000    -7.146000000
O    -2.158000000    -5.434000000    -0.260000000
H    -1.820000000    -5.356000000    -1.152000000
H    -2.535000000    -4.576000000    -0.070000000
O     6.295000000    -2.457000000    -0.109000000
H     6.513000000    -3.288000000     0.313000000
H     5.344000000    -2.486000000    -0.218000000
O    -5.770000000     2.621000000     1.359000000
H    -5.529000000     3.346000000     1.935000000
H    -6.113000000     1.950000000     1.948000000
O     0.611000000     1.557000000     3.981000000
H     0.063000000     1.132000000     3.321000000
H     0.326000000     1.177000000     4.811000000
O    -2.811000000    -1.183000000    -3.090000000
H    -2.154000000    -1.731000000    -2.660000000
H    -2.549000000    -1.174000000    -4.011000000
O    -4.641000000     3.452000000    -1.163000000
H    -4.570000000     3.060000000    -0.293000000
H    -5.413000000     4.016000000    -1.110000000
O    -1.263000000     2.322000000    -5.701000000
H    -1.026000000     2.067000000    -4.809000000
H    -2.003000000     2.919000000    -5.591000000
O     0.379000000    -0.676000000     5.580000000
H    -0.076000000    -0.450000000     6.392000000
H     0.607000000    -1.600000000     5.682000000
O     5.746000000     0.047000000    -3.575000000
H     5.923000000     0.867000000    -4.037000000
H     4.838000000    -0.160000000    -3.795000000
O     0.628000000     1.974000000    -7.661000000
H     0.079000000     1.988000000    -6.877000000
H     1.200000000     1.216000000    -7.540000000
O    -0.867000000    -2.934000000    -2.165000000
H     0.019000000    -2.785000000    -2.496000000
H    -1.179000000    -3.696000000    -2.653000000
O     5.021000000    -1.516000000     4.511000000
H     5.249000000    -1.318000000     3.603000000
H     4.139000000    -1.161000000     4.619000000
O    -1.652000000    -2.898000000     7.491000000
H    -1.523000000    -1.997000000     7.195000000
H    -0.770000000    -3.214000000     7.686000000
O    -3.550000000    -5.976000000     3.631000000
H    -4.090000000    -6.111000000     2.853000000
H    -2.912000000    -5.313000000     3.367000000
O    -2.750000000     2.561000000     1.650000000
H    -2.662000000     2.420000000     2.592000000
H    -2.987000000     1.703000000     1.300000000
O     0.983000000    -7.086000000     0.344000000
H     1.318000000    -6.204000000     0.503000000
H     0.425000000    -7.270000000     1.099000000
O     2.474000000    -0.979000000    -3.832000000
H     1.798000000    -0.320000000    -3.678000000
H     2.519000000    -1.058000000    -4.785000000
O     2.759000000    -0.437000000     7.419000000
H     3.462000000    -1.086000000     7.455000000
H     2.719000000    -0.177000000     6.499000000
O     2.657000000     2.712000000     2.593000000
H     1.856000000     2.536000000     3.085000000
H     2.352000000     3.035000000     1.745000000
O    -3.611000000     2.692000000    -3.729000000
H    -3.973000000     2.968000000    -2.887000000
H    -2.688000000     2.516000000    -3.546000000
O     2.424000000     1.583000000    -5.431000000
H     1.663000000     1.454000000    -4.865000000
H     2.295000000     2.453000000    -5.810000000
O     6.210000000     0.334000000    -1.034000000
H     6.043000000     0.396000000    -1.975000000
H     6.533000000    -0.558000000    -0.907000000
O     0.628000000     3.087000000     0.560000000
H     0.003000000     2.421000000     0.272000000
H     1.044000000     3.390000000    -0.247000000
O    -5.056000000    -3.058000000     3.476000000
H    -5.214000000    -2.115000000     3.438000000
H    -4.105000000    -3.139000000     3.547000000
O     5.138000000     0.073000000     1.873000000
H     5.529000000     0.340000000     1.041000000
H     4.403000000     0.673000000     1.996000000
O    -1.279000000    -1.290000000    -5.930000000
H    -0.323000000    -1.332000000    -5.929000000
H    -1.492000000    -0.698000000    -6.651000000
O    -2.402000000    -2.746000000     0.578000000
H    -1.887000000    -2.108000000     0.084000000
H    -3.154000000    -2.250000000     0.901000000
O     2.002000000    -5.064000000     2.839000000
H     2.791000000    -5.606000000     2.844000000
H     2.050000000    -4.579000000     2.015000000
O     4.711000000     3.305000000    -2.521000000
H     3.756000000     3.361000000    -2.542000000
H     4.946000000     3.554000000    -1.627000000
O     2.006000000    -3.231000000    -2.263000000
H     2.074000000    -2.449000000    -2.811000000
H     2.888000000    -3.603000000    -2.265000000
O     3.082000000     0.183000000     4.757000000
H     2.127000000     0.137000000     4.716000000
H     3.298000000     1.029000000     4.363000000
O    -2.162000000    -3.600000000     3.178000000
H    -1.935000000    -3.230000000     2.324000000
H    -1.456000000    -3.314000000     3.758000000
O    -2.112000000     2.551000000     4.263000000
H    -1.201000000     2.803000000     4.412000000
H    -2.399000000     2.188000000     5.101000000
O     1.325000000    -4.167000000     0.348000000
H     1.608000000    -3.774000000    -0.478000000
H     0.427000000    -3.857000000     0.465000000
