158
-3044.90170
C    -1.044000000     0.757000000     0.804000000
H    -1.789000000     1.369000000     1.305000000
C    -0.367000000     1.206000000    -0.371000000
H    -0.555000000     2.229000000    -0.687000000
C     0.623000000     0.399000000    -0.984000000
H     1.070000000     0.736000000    -1.887000000
C     0.906000000    -0.871000000    -0.477000000
H     1.614000000    -1.516000000    -0.990000000
C     0.190000000    -1.296000000     0.611000000
H     0.286000000    -2.310000000     0.991000000
C    -0.841000000    -0.543000000     1.187000000
C    -1.503000000    -1.027000000     2.389000000
O    -2.749000000    -0.830000000     2.462000000
O    -0.805000000    -1.488000000     3.262000000
O     0.234000000     2.956000000     5.566000000
H    -0.675000000     2.878000000     5.858000000
H     0.454000000     2.085000000     5.235000000
O    -4.012000000    -3.282000000    -1.248000000
H    -3.460000000    -3.967000000    -1.626000000
H    -3.928000000    -3.401000000    -0.302000000
O     4.038000000     5.070000000    -3.554000000
H     3.655000000     5.935000000    -3.698000000
H     3.605000000     4.745000000    -2.765000000
O     1.952000000    -6.264000000     1.479000000
H     2.148000000    -5.350000000     1.687000000
H     1.373000000    -6.218000000     0.719000000
O     1.277000000    -3.265000000     3.874000000
H     0.560000000    -2.711000000     3.566000000
H     1.984000000    -3.111000000     3.247000000
O     0.708000000     2.415000000    -4.401000000
H     1.107000000     3.043000000    -5.003000000
H     1.203000000     1.607000000    -4.534000000
O     2.504000000    -2.890000000    -3.686000000
H     2.269000000    -1.990000000    -3.913000000
H     3.452000000    -2.930000000    -3.815000000
O    -0.590000000     4.650000000    -3.229000000
H    -0.347000000     3.739000000    -3.397000000
H    -1.453000000     4.596000000    -2.820000000
O    -1.012000000    -6.883000000     2.597000000
H    -0.333000000    -6.217000000     2.491000000
H    -0.749000000    -7.590000000     2.008000000
O     5.172000000     2.495000000    -3.871000000
H     4.797000000     3.263000000    -4.301000000
H     5.017000000     2.642000000    -2.938000000
O     0.894000000     5.520000000     0.173000000
H     1.481000000     5.446000000     0.925000000
H     0.015000000     5.483000000     0.550000000
O    -5.524000000     2.052000000     2.689000000
H    -6.389000000     2.453000000     2.610000000
H    -5.160000000     2.424000000     3.492000000
O     4.230000000    -4.480000000    -0.554000000
H     4.862000000    -3.793000000    -0.767000000
H     4.386000000    -5.160000000    -1.211000000
O    -6.425000000    -1.223000000     4.142000000
H    -5.792000000    -0.785000000     3.573000000
H    -5.918000000    -1.903000000     4.585000000
O     1.405000000    -4.015000000    -1.514000000
H     1.751000000    -3.594000000    -2.301000000
H     2.180000000    -4.344000000    -1.059000000
O    -2.027000000    -3.651000000     4.407000000
H    -1.553000000    -3.564000000     5.234000000
H    -1.757000000    -2.889000000     3.895000000
O    -0.012000000    -6.092000000    -0.312000000
H    -0.894000000    -6.047000000    -0.683000000
H     0.467000000    -5.387000000    -0.749000000
O     3.947000000    -0.537000000     1.764000000
H     3.375000000     0.147000000     2.112000000
H     4.286000000    -0.173000000     0.946000000
O    -3.651000000    -0.936000000     4.959000000
H    -3.173000000    -0.854000000     4.134000000
H    -3.700000000    -1.879000000     5.115000000
O    -2.521000000    -0.576000000    -2.499000000
H    -2.470000000    -0.361000000    -1.568000000
H    -2.009000000    -1.380000000    -2.587000000
O     0.585000000     0.076000000    -7.769000000
H     0.758000000     0.863000000    -8.287000000
H     1.437000000    -0.161000000    -7.403000000
O    -4.923000000    -3.511000000     4.847000000
H    -4.566000000    -4.331000000     4.507000000
H    -5.075000000    -3.683000000     5.777000000
O     0.548000000     7.130000000    -2.414000000
H     0.028000000     7.383000000    -1.651000000
H     0.289000000     6.226000000    -2.592000000
O    -5.687000000    -1.318000000    -0.385000000
H    -5.265000000    -0.797000000     0.298000000
H    -5.011000000    -1.934000000    -0.668000000
O    -4.800000000     1.239000000    -1.968000000
H    -4.650000000     0.955000000    -1.067000000
H    -4.233000000     0.677000000    -2.495000000
O    -1.974000000     1.372000000    -4.463000000
H    -1.981000000     0.709000000    -3.773000000
H    -1.069000000     1.683000000    -4.487000000
O    -4.100000000    -3.111000000     1.534000000
H    -3.818000000    -2.316000000     1.986000000
H    -4.456000000    -3.667000000     2.227000000
O     4.239000000     2.793000000    -1.367000000
H     4.221000000     1.928000000    -0.957000000
H     3.345000000     3.122000000    -1.271000000
O    -4.493000000     1.432000000     6.255000000
H    -4.287000000     0.699000000     5.674000000
H    -5.443000000     1.391000000     6.364000000
O    -1.642000000    -0.749000000    -6.329000000
H    -1.549000000     0.068000000    -5.840000000
H    -1.011000000    -0.674000000    -7.044000000
O     5.978000000    -0.657000000    -3.637000000
H     6.878000000    -0.330000000    -3.644000000
H     5.461000000     0.055000000    -4.014000000
O     1.966000000     1.260000000     1.641000000
H     2.210000000     2.166000000     1.831000000
H     1.443000000     1.316000000     0.841000000
O     2.825000000     0.175000000     5.515000000
H     2.276000000     0.698000000     4.930000000
H     2.261000000    -0.547000000     5.791000000
O     4.735000000     0.948000000    -6.010000000
H     5.037000000     1.496000000    -5.286000000
H     5.362000000     1.113000000    -6.714000000
O     0.558000000     0.608000000     4.056000000
H     0.229000000    -0.268000000     3.851000000
H     0.942000000     0.917000000     3.235000000
O    -3.638000000    -5.355000000     3.372000000
H    -2.997000000    -4.832000000     3.853000000
H    -3.110000000    -5.916000000     2.802000000
O    -1.188000000    -3.212000000    -2.833000000
H    -0.543000000    -3.059000000    -2.142000000
H    -1.542000000    -4.080000000    -2.642000000
O    -4.257000000     5.306000000     1.719000000
H    -4.510000000     5.494000000     2.623000000
H    -4.794000000     4.553000000     1.471000000
O     4.935000000     0.292000000    -0.452000000
H     5.573000000     0.867000000    -0.031000000
H     5.344000000     0.047000000    -1.282000000
O    -1.613000000     5.751000000     1.604000000
H    -1.213000000     5.788000000     2.473000000
H    -2.462000000     5.334000000     1.748000000
O     2.760000000    -0.607000000    -5.196000000
H     2.797000000    -1.420000000    -5.700000000
H     3.431000000    -0.049000000    -5.591000000
O    -3.172000000     4.507000000    -2.598000000
H    -3.790000000     4.100000000    -3.205000000
H    -3.583000000     5.338000000    -2.360000000
O    -1.405000000    -0.598000000     6.725000000
H    -2.197000000    -0.428000000     6.216000000
H    -0.718000000    -0.112000000     6.269000000
O    -4.251000000     0.626000000     0.716000000
H    -3.573000000     0.197000000     1.238000000
H    -4.687000000     1.217000000     1.329000000
O     1.712000000    -1.974000000     6.317000000
H     1.979000000    -2.502000000     7.069000000
H     1.609000000    -2.605000000     5.605000000
O    -1.105000000    -3.242000000     7.015000000
H    -2.015000000    -2.945000000     6.977000000
H    -0.590000000    -2.435000000     7.029000000
O     1.760000000     3.886000000    -1.809000000
H     0.960000000     3.820000000    -2.331000000
H     1.535000000     4.491000000    -1.103000000
O     2.957000000    -3.253000000     1.727000000
H     3.242000000    -2.342000000     1.651000000
H     3.380000000    -3.698000000     0.993000000
