158
-3042.38234
C    -0.863000000     0.845000000     0.846000000
H    -1.523000000     1.526000000     1.376000000
C    -0.021000000     1.342000000    -0.143000000
H     0.139000000     2.391000000    -0.377000000
C     0.615000000     0.423000000    -0.924000000
H     1.341000000     0.780000000    -1.641000000
C     0.639000000    -0.950000000    -0.577000000
H     1.238000000    -1.625000000    -1.183000000
C    -0.152000000    -1.427000000     0.418000000
H    -0.089000000    -2.474000000     0.703000000
C    -0.965000000    -0.565000000     1.125000000
C    -1.725000000    -1.072000000     2.322000000
O    -2.242000000    -0.282000000     3.063000000
O    -1.822000000    -2.313000000     2.405000000
O     1.737000000     2.831000000     4.128000000
H     1.037000000     2.289000000     4.492000000
H     2.499000000     2.253000000     4.103000000
O     2.290000000     6.189000000    -3.211000000
H     2.014000000     5.472000000    -2.640000000
H     1.818000000     6.953000000    -2.880000000
O     0.575000000    -5.780000000     1.603000000
H    -0.065000000    -5.688000000     0.897000000
H     0.046000000    -5.841000000     2.399000000
O     0.200000000    -3.140000000     3.932000000
H    -0.566000000    -3.174000000     3.359000000
H     0.912000000    -2.849000000     3.362000000
O    -4.099000000     5.389000000     0.766000000
H    -4.061000000     6.332000000     0.926000000
H    -3.819000000     4.995000000     1.593000000
O    -3.913000000     2.537000000    -3.187000000
H    -3.029000000     2.875000000    -3.328000000
H    -3.797000000     1.809000000    -2.576000000
O    -0.447000000    -0.194000000    -3.883000000
H    -0.802000000     0.101000000    -4.721000000
H     0.118000000    -0.933000000    -4.108000000
O    -2.102000000     4.493000000    -1.137000000
H    -1.657000000     3.789000000    -0.665000000
H    -2.943000000     4.587000000    -0.690000000
O    -2.346000000    -6.987000000     2.817000000
H    -2.613000000    -6.181000000     3.258000000
H    -2.019000000    -6.698000000     1.966000000
O     4.284000000    -0.288000000    -1.176000000
H     4.026000000    -1.083000000    -1.642000000
H     5.241000000    -0.316000000    -1.166000000
O     4.306000000     4.443000000    -3.593000000
H     3.684000000     5.163000000    -3.489000000
H     4.581000000     4.495000000    -4.509000000
O    -2.166000000     2.218000000     4.074000000
H    -2.109000000     1.376000000     3.623000000
H    -1.359000000     2.269000000     4.588000000
O     3.837000000    -2.375000000    -2.942000000
H     3.409000000    -2.634000000    -3.758000000
H     4.721000000    -2.121000000    -3.206000000
O     0.317000000    -2.831000000    -4.399000000
H    -0.446000000    -3.313000000    -4.720000000
H     0.724000000    -2.474000000    -5.188000000
O    -3.164000000    -4.546000000     3.923000000
H    -3.962000000    -4.372000000     4.422000000
H    -2.825000000    -3.679000000     3.702000000
O     0.140000000    -4.107000000    -1.849000000
H     0.015000000    -5.040000000    -2.021000000
H     0.320000000    -3.726000000    -2.709000000
O     4.745000000    -1.547000000     2.112000000
H     4.232000000    -0.835000000     1.730000000
H     5.521000000    -1.117000000     2.471000000
O    -3.066000000    -1.287000000     5.430000000
H    -2.672000000    -1.171000000     4.566000000
H    -2.685000000    -0.588000000     5.962000000
O    -3.031000000     0.514000000    -1.632000000
H    -3.103000000    -0.440000000    -1.602000000
H    -2.094000000     0.681000000    -1.733000000
O    -1.964000000     0.391000000    -6.274000000
H    -1.738000000     0.010000000    -7.122000000
H    -1.470000000     1.210000000    -6.239000000
O    -4.825000000    -3.285000000     5.481000000
H    -4.253000000    -2.646000000     5.905000000
H    -5.640000000    -3.247000000     5.982000000
O    -4.950000000     2.252000000     5.434000000
H    -4.444000000     1.580000000     5.891000000
H    -4.378000000     2.540000000     4.723000000
O    -5.468000000     0.314000000     0.119000000
H    -5.296000000     0.014000000     1.011000000
H    -4.625000000     0.239000000    -0.327000000
O     0.923000000     4.116000000    -1.771000000
H     1.646000000     3.599000000    -2.128000000
H     0.138000000     3.731000000    -2.160000000
O    -2.308000000     0.893000000     7.226000000
H    -2.636000000     1.788000000     7.316000000
H    -2.139000000     0.609000000     8.124000000
O     3.230000000     2.171000000    -2.158000000
H     3.497000000     1.361000000    -1.724000000
H     4.011000000     2.724000000    -2.135000000
O     2.967000000     0.350000000     1.154000000
H     2.042000000     0.114000000     1.228000000
H     3.242000000    -0.022000000     0.316000000
O    -1.935000000    -6.279000000     0.313000000
H    -2.220000000    -6.658000000    -0.519000000
H    -2.172000000    -5.354000000     0.247000000
O     6.483000000    -1.473000000    -3.306000000
H     6.370000000    -0.873000000    -4.043000000
H     6.640000000    -0.902000000    -2.554000000
O     2.184000000    -2.470000000     2.388000000
H     3.094000000    -2.237000000     2.573000000
H     2.177000000    -2.694000000     1.458000000
O     4.466000000     1.397000000    -4.555000000
H     4.435000000     2.281000000    -4.922000000
H     3.755000000     1.379000000    -3.914000000
O     0.108000000     1.412000000     5.866000000
H    -0.601000000     0.840000000     6.160000000
H     0.896000000     0.875000000     5.939000000
O    -2.864000000    -3.780000000     0.310000000
H    -3.802000000    -3.942000000     0.212000000
H    -2.804000000    -3.149000000     1.027000000
O    -1.804000000     5.932000000    -3.584000000
H    -2.567000000     5.721000000    -4.124000000
H    -1.895000000     5.372000000    -2.813000000
O     1.443000000    -1.276000000    -6.321000000
H     1.745000000    -0.371000000    -6.405000000
H     1.493000000    -1.629000000    -7.209000000
O     1.712000000    -0.635000000     5.429000000
H     2.315000000    -1.222000000     5.884000000
H     2.016000000    -0.636000000     4.521000000
O    -3.590000000     4.740000000     3.356000000
H    -3.692000000     5.144000000     4.218000000
H    -3.045000000     3.970000000     3.515000000
O     2.409000000     1.007000000    -7.129000000
H     2.928000000     1.120000000    -7.925000000
H     2.004000000     1.862000000    -6.984000000
O    -1.972000000    -2.083000000    -2.502000000
H    -1.591000000    -1.404000000    -3.059000000
H    -1.254000000    -2.355000000    -1.931000000
O    -0.736000000     2.389000000    -3.180000000
H    -0.840000000     2.631000000    -4.100000000
H    -0.531000000     1.454000000    -3.200000000
O    -1.571000000    -3.736000000     6.343000000
H    -2.250000000    -3.071000000     6.226000000
H    -1.086000000    -3.731000000     5.518000000
O     3.026000000     2.980000000     1.393000000
H     2.893000000     2.066000000     1.141000000
H     2.473000000     3.098000000     2.166000000
O    -5.168000000    -0.331000000     2.734000000
H    -4.257000000    -0.292000000     3.025000000
H    -5.676000000    -0.063000000     3.500000000
O     1.968000000    -4.525000000     5.399000000
H     1.247000000    -4.136000000     4.905000000
H     2.697000000    -4.552000000     4.780000000
O     4.467000000     4.842000000     0.111000000
H     3.904000000     4.141000000     0.440000000
H     3.971000000     5.644000000     0.274000000
O    -0.993000000     2.980000000    -6.058000000
H    -1.433000000     3.170000000    -6.886000000
H    -0.151000000     3.432000000    -6.125000000
O     0.555000000     6.263000000    -0.038000000
H    -0.387000000     6.434000000    -0.023000000
H     0.660000000     5.555000000    -0.674000000
O     2.749000000    -3.690000000    -0.351000000
H     1.802000000    -3.566000000    -0.423000000
H     3.080000000    -3.524000000    -1.233000000
