158
-3036.53776
C    -1.270000000     0.510000000     0.431000000
H    -2.174000000     1.060000000     0.680000000
C    -0.267000000     1.171000000    -0.216000000
H    -0.393000000     2.212000000    -0.503000000
C     0.911000000     0.540000000    -0.519000000
H     1.752000000     1.045000000    -0.970000000
C     1.047000000    -0.803000000    -0.437000000
H     1.932000000    -1.261000000    -0.871000000
C     0.107000000    -1.467000000     0.322000000
H     0.258000000    -2.520000000     0.543000000
C    -1.057000000    -0.808000000     0.762000000
C    -2.131000000    -1.511000000     1.551000000
O    -3.290000000    -1.189000000     1.461000000
O    -1.800000000    -2.327000000     2.440000000
O    -0.335000000     4.033000000     2.771000000
H    -0.777000000     4.841000000     2.511000000
H    -1.030000000     3.488000000     3.140000000
O     5.599000000     3.971000000    -3.985000000
H     5.255000000     4.830000000    -4.231000000
H     4.909000000     3.356000000    -4.235000000
O    -0.177000000    -6.075000000     3.306000000
H     0.617000000    -5.545000000     3.382000000
H     0.122000000    -6.901000000     2.926000000
O     0.418000000    -1.817000000     3.494000000
H    -0.357000000    -2.136000000     3.031000000
H     0.358000000    -2.212000000     4.363000000
O    -3.082000000     5.173000000    -2.345000000
H    -3.091000000     4.469000000    -2.994000000
H    -4.003000000     5.303000000    -2.119000000
O     0.596000000     1.402000000    -4.624000000
H     0.963000000     1.841000000    -5.391000000
H     0.892000000     1.928000000    -3.881000000
O     3.250000000    -3.328000000    -2.107000000
H     3.559000000    -3.574000000    -1.235000000
H     4.046000000    -3.267000000    -2.635000000
O     0.725000000     4.365000000    -5.564000000
H     0.800000000     3.934000000    -4.713000000
H     0.100000000     3.828000000    -6.051000000
O    -3.171000000     2.792000000    -3.794000000
H    -3.788000000     2.565000000    -3.098000000
H    -2.867000000     1.949000000    -4.129000000
O    -2.326000000    -1.537000000     7.066000000
H    -2.103000000    -1.808000000     7.956000000
H    -1.584000000    -1.827000000     6.535000000
O     3.986000000     1.671000000    -4.696000000
H     4.852000000     1.397000000    -4.998000000
H     3.419000000     1.555000000    -5.459000000
O    -0.406000000     5.542000000    -2.318000000
H    -0.116000000     5.448000000    -1.411000000
H    -1.362000000     5.543000000    -2.266000000
O     4.724000000    -1.119000000     0.393000000
H     3.802000000    -1.041000000     0.638000000
H     4.798000000    -0.624000000    -0.422000000
O    -5.662000000     3.555000000     1.854000000
H    -4.904000000     2.972000000     1.806000000
H    -5.369000000     4.284000000     2.400000000
O     0.291000000    -5.628000000    -2.912000000
H     1.195000000    -5.916000000    -2.782000000
H     0.360000000    -4.686000000    -3.069000000
O     0.381000000    -2.712000000     6.308000000
H     0.343000000    -2.241000000     7.140000000
H     0.396000000    -3.636000000     6.556000000
O    -2.092000000    -4.627000000     0.921000000
H    -1.721000000    -5.197000000     1.595000000
H    -2.116000000    -3.760000000     1.327000000
O     4.688000000     2.545000000     2.570000000
H     3.805000000     2.313000000     2.284000000
H     5.023000000     1.750000000     2.985000000
O    -1.872000000     2.430000000     4.319000000
H    -2.688000000     1.950000000     4.180000000
H    -2.051000000     2.993000000     5.072000000
O    -2.013000000    -1.224000000    -2.406000000
H    -1.279000000    -0.943000000    -1.860000000
H    -2.043000000    -2.174000000    -2.296000000
O    -6.812000000    -1.954000000     4.004000000
H    -6.971000000    -2.748000000     4.514000000
H    -6.801000000    -1.250000000     4.652000000
O    -2.000000000    -4.358000000     4.952000000
H    -1.348000000    -4.867000000     4.470000000
H    -2.644000000    -4.107000000     4.290000000
O     6.223000000    -2.347000000     2.376000000
H     5.629000000    -2.908000000     2.875000000
H     5.651000000    -1.868000000     1.775000000
O    -6.342000000    -4.674000000     0.542000000
H    -6.663000000    -4.408000000    -0.319000000
H    -6.520000000    -3.922000000     1.107000000
O    -4.524000000    -0.499000000    -1.400000000
H    -3.781000000    -0.865000000    -1.879000000
H    -4.532000000    -0.975000000    -0.570000000
O    -1.917000000     0.444000000    -4.675000000
H    -1.846000000    -0.097000000    -3.888000000
H    -1.163000000     1.032000000    -4.630000000
O    -4.179000000    -6.454000000     0.514000000
H    -3.727000000    -5.619000000     0.639000000
H    -5.097000000    -6.213000000     0.388000000
O    -4.159000000    -3.203000000     3.587000000
H    -3.651000000    -2.723000000     2.932000000
H    -5.060000000    -2.909000000     3.452000000
O     3.971000000     2.204000000    -1.843000000
H     4.519000000     1.453000000    -1.617000000
H     4.115000000     2.333000000    -2.780000000
O     2.291000000     1.768000000     1.932000000
H     1.822000000     1.562000000     2.740000000
H     1.736000000     1.415000000     1.236000000
O    -4.104000000    -6.032000000     5.179000000
H    -3.634000000    -5.200000000     5.216000000
H    -3.613000000    -6.557000000     4.547000000
O    -1.943000000    -3.838000000    -1.668000000
H    -1.195000000    -4.311000000    -2.034000000
H    -1.985000000    -4.126000000    -0.756000000
O    -6.947000000    -1.969000000     1.135000000
H    -6.943000000    -1.937000000     2.091000000
H    -7.147000000    -1.072000000     0.866000000
O     7.264000000     2.144000000    -1.183000000
H     6.646000000     2.505000000    -1.818000000
H     7.959000000     2.799000000    -1.125000000
O    -6.598000000     0.713000000     0.558000000
H    -7.177000000     1.310000000     1.033000000
H    -5.756000000     0.788000000     1.008000000
O     5.278000000    -0.200000000    -2.460000000
H     4.453000000    -0.449000000    -2.876000000
H     5.855000000     0.028000000    -3.189000000
O    -2.215000000     5.762000000     1.597000000
H    -2.916000000     5.736000000     2.249000000
H    -2.362000000     6.578000000     1.119000000
O     0.796000000    -3.081000000    -3.249000000
H     1.723000000    -3.176000000    -3.031000000
H     0.719000000    -2.188000000    -3.585000000
O    -4.875000000     2.027000000    -1.939000000
H    -4.805000000     1.099000000    -1.715000000
H    -5.740000000     2.285000000    -1.622000000
O     0.959000000     5.079000000     0.420000000
H     0.661000000     4.313000000     0.910000000
H     1.710000000     5.404000000     0.916000000
O     0.283000000     0.980000000     4.063000000
H    -0.551000000     1.450000000     4.064000000
H     0.063000000     0.103000000     3.746000000
O     1.189000000    -1.175000000    -5.546000000
H     1.249000000    -0.347000000    -5.070000000
H     0.356000000    -1.122000000    -6.014000000
O    -4.577000000     0.717000000     2.662000000
H    -4.056000000     0.070000000     2.187000000
H    -4.653000000     0.360000000     3.547000000
O    -3.408000000    -0.623000000     4.813000000
H    -3.023000000    -0.779000000     5.675000000
H    -3.356000000    -1.470000000     4.370000000
O     4.798000000     4.505000000    -0.407000000
H     4.358000000     3.772000000    -0.838000000
H     4.340000000     5.282000000    -0.729000000
O     2.927000000     5.566000000     2.222000000
H     3.419000000     4.917000000     1.720000000
H     2.833000000     5.176000000     3.091000000
O     1.129000000     3.365000000    -3.031000000
H     1.940000000     3.287000000    -2.528000000
H     0.722000000     4.168000000    -2.706000000
O     2.805000000    -2.086000000     2.331000000
H     2.750000000    -3.041000000     2.282000000
H     1.984000000    -1.820000000     2.745000000
