158
-3017.86538
C    -1.250000000     0.601000000     0.416000000
H    -2.224000000     1.058000000     0.574000000
C    -0.416000000     1.142000000    -0.570000000
H    -0.695000000     2.043000000    -1.112000000
C     0.770000000     0.572000000    -0.811000000
H     1.416000000     1.142000000    -1.497000000
C     1.160000000    -0.513000000    -0.017000000
H     2.146000000    -0.949000000    -0.153000000
C     0.299000000    -1.141000000     0.838000000
H     0.510000000    -2.038000000     1.415000000
C    -0.971000000    -0.642000000     1.064000000
C    -1.871000000    -1.156000000     2.118000000
O    -2.953000000    -0.580000000     2.366000000
O    -1.701000000    -2.294000000     2.553000000
O    -1.121000000     4.122000000     1.439000000
H    -1.923000000     3.957000000     1.935000000
H    -0.558000000     3.374000000     1.639000000
O     4.799000000     3.340000000    -2.932000000
H     5.665000000     3.748000000    -2.907000000
H     4.882000000     2.641000000    -3.581000000
O     0.995000000    -4.147000000     2.570000000
H     1.879000000    -4.513000000     2.577000000
H     0.898000000    -3.738000000     3.430000000
O     0.152000000    -1.979000000     4.871000000
H    -0.579000000    -2.094000000     4.263000000
H    -0.152000000    -2.377000000     5.687000000
O    -4.089000000     2.842000000     5.341000000
H    -3.696000000     2.862000000     6.214000000
H    -5.032000000     2.838000000     5.503000000
O    -3.544000000     5.311000000    -2.300000000
H    -3.316000000     4.803000000    -3.079000000
H    -3.890000000     4.665000000    -1.685000000
O     1.748000000     2.210000000    -4.590000000
H     1.183000000     2.815000000    -4.109000000
H     1.772000000     2.560000000    -5.480000000
O    -1.269000000     4.105000000    -4.963000000
H    -1.612000000     3.784000000    -5.797000000
H    -1.537000000     3.445000000    -4.324000000
O     0.972000000     5.767000000    -5.262000000
H     1.447000000     5.370000000    -4.532000000
H     0.150000000     5.279000000    -5.307000000
O    -2.568000000     2.399000000    -3.097000000
H    -3.145000000     1.779000000    -3.544000000
H    -2.327000000     1.958000000    -2.283000000
O     3.325000000     0.229000000    -3.536000000
H     2.674000000     0.848000000    -3.866000000
H     3.254000000     0.290000000    -2.584000000
O     4.782000000     3.486000000     0.232000000
H     4.976000000     3.798000000    -0.652000000
H     5.525000000     3.782000000     0.758000000
O     3.402000000    -2.283000000     2.011000000
H     3.064000000    -2.583000000     2.855000000
H     3.574000000    -3.088000000     1.523000000
O    -6.802000000     2.893000000     1.759000000
H    -6.263000000     2.129000000     1.965000000
H    -6.450000000     3.590000000     2.312000000
O     0.078000000    -3.767000000    -3.272000000
H    -0.834000000    -3.725000000    -3.559000000
H     0.492000000    -3.004000000    -3.674000000
O     6.945000000    -1.882000000     1.304000000
H     6.120000000    -1.672000000     0.867000000
H     6.949000000    -1.333000000     2.088000000
O    -3.323000000    -6.483000000     4.903000000
H    -2.668000000    -5.805000000     4.741000000
H    -3.458000000    -6.895000000     4.050000000
O    -1.072000000    -3.907000000     0.520000000
H    -0.125000000    -4.029000000     0.582000000
H    -1.280000000    -3.284000000     1.217000000
O     3.795000000     0.354000000     1.547000000
H     2.996000000     0.868000000     1.429000000
H     3.490000000    -0.551000000     1.606000000
O    -2.007000000     1.465000000     3.796000000
H    -2.351000000     0.945000000     3.070000000
H    -2.778000000     1.889000000     4.173000000
O    -3.071000000    -2.803000000    -1.250000000
H    -2.241000000    -3.121000000    -0.895000000
H    -2.862000000    -2.541000000    -2.146000000
O    -1.718000000    -4.744000000     3.684000000
H    -0.781000000    -4.817000000     3.507000000
H    -1.966000000    -3.896000000     3.316000000
O    -4.289000000    -0.581000000    -0.631000000
H    -3.997000000    -1.482000000    -0.494000000
H    -3.951000000    -0.102000000     0.126000000
O    -4.779000000    -2.215000000     3.238000000
H    -3.890000000    -1.975000000     2.977000000
H    -4.988000000    -1.616000000     3.955000000
O     2.118000000     4.253000000     0.433000000
H     1.533000000     3.610000000     0.833000000
H     2.952000000     3.793000000     0.341000000
O    -2.148000000    -1.885000000    -3.548000000
H    -2.141000000    -2.159000000    -4.465000000
H    -1.462000000    -1.219000000    -3.493000000
O     1.203000000     2.007000000     1.759000000
H     1.361000000     1.586000000     2.604000000
H     0.736000000     1.347000000     1.247000000
O    -6.418000000    -3.817000000     1.934000000
H    -6.096000000    -3.934000000     1.040000000
H    -5.733000000    -3.312000000     2.372000000
O    -1.338000000    -6.404000000    -1.416000000
H    -0.612000000    -6.625000000    -1.999000000
H    -0.981000000    -5.737000000    -0.830000000
O     4.336000000     1.195000000    -1.206000000
H     4.478000000     1.328000000    -0.269000000
H     4.651000000     2.002000000    -1.613000000
O     2.557000000    -4.798000000    -3.457000000
H     2.801000000    -5.138000000    -2.596000000
H     1.704000000    -4.387000000    -3.319000000
O     1.198000000    -3.287000000    -6.479000000
H     2.133000000    -3.436000000    -6.618000000
H     1.150000000    -2.831000000    -5.639000000
O    -7.560000000    -0.790000000     0.966000000
H    -6.820000000    -0.824000000     1.572000000
H    -7.746000000     0.144000000     0.866000000
O     5.351000000    -1.342000000    -0.975000000
H     5.074000000    -1.944000000    -1.666000000
H     5.292000000    -0.475000000    -1.375000000
O    -3.928000000     4.745000000     1.505000000
H    -4.459000000     4.627000000     2.292000000
H    -3.735000000     5.682000000     1.485000000
O     1.519000000    -1.824000000    -4.415000000
H     2.365000000    -1.379000000    -4.355000000
H     0.875000000    -1.115000000    -4.408000000
O     4.523000000    -1.231000000    -5.340000000
H     4.293000000    -0.680000000    -4.592000000
H     4.706000000    -0.612000000    -6.046000000
O    -6.769000000    -0.566000000    -2.010000000
H    -6.022000000    -0.441000000    -1.425000000
H    -7.374000000     0.138000000    -1.778000000
O    -0.339000000     6.573000000     0.402000000
H    -0.832000000     5.775000000     0.592000000
H     0.415000000     6.274000000    -0.106000000
O     0.481000000     0.681000000     4.330000000
H    -0.375000000     1.101000000     4.255000000
H     0.287000000    -0.204000000     4.640000000
O    -0.152000000     0.246000000    -4.483000000
H     0.621000000     0.806000000    -4.416000000
H    -0.523000000     0.452000000    -5.341000000
O    -0.889000000     1.271000000    -6.895000000
H    -0.206000000     1.872000000    -7.191000000
H    -1.501000000     1.224000000    -7.630000000
O    -5.235000000     0.977000000     2.832000000
H    -4.733000000     0.262000000     2.442000000
H    -5.131000000     0.856000000     3.776000000
O     2.704000000    -2.638000000     4.754000000
H     1.918000000    -2.195000000     5.075000000
H     3.427000000    -2.195000000     5.198000000
O    -4.666000000    -0.189000000     5.489000000
H    -5.436000000    -0.031000000     6.036000000
H    -3.924000000    -0.102000000     6.088000000
O     3.563000000     6.329000000    -0.431000000
H     3.623000000     7.037000000     0.210000000
H     2.979000000     5.688000000    -0.027000000
O     2.148000000     4.463000000    -3.080000000
H     3.065000000     4.209000000    -3.186000000
H     1.889000000     4.079000000    -2.242000000
O     3.871000000    -4.688000000     0.649000000
H     3.230000000    -5.339000000     0.364000000
H     4.497000000    -4.637000000    -0.073000000
