158
-3009.70149
C    -0.873000000    -0.395000000     1.184000000
H    -1.527000000    -0.771000000     1.966000000
C    -0.933000000    -0.829000000    -0.161000000
H    -1.833000000    -1.423000000    -0.293000000
C    -0.129000000    -0.393000000    -1.173000000
H    -0.366000000    -0.710000000    -2.205000000
C     0.930000000     0.446000000    -0.879000000
H     1.552000000     0.833000000    -1.683000000
C     1.121000000     0.845000000     0.458000000
H     1.997000000     1.460000000     0.644000000
C     0.282000000     0.414000000     1.472000000
C     0.531000000     0.789000000     2.918000000
O    -0.415000000     0.681000000     3.696000000
O     1.573000000     1.356000000     3.257000000
O    -4.808000000    -2.938000000    -5.343000000
H    -5.145000000    -2.156000000    -4.907000000
H    -4.087000000    -2.618000000    -5.886000000
O     5.724000000    -0.276000000    -0.145000000
H     5.522000000    -0.705000000     0.687000000
H     6.383000000    -0.840000000    -0.551000000
O    -0.318000000    -0.753000000    -4.954000000
H    -0.024000000    -1.367000000    -4.281000000
H     0.199000000     0.038000000    -4.798000000
O     1.052000000     3.919000000     2.258000000
H     0.547000000     4.355000000     2.945000000
H     1.322000000     3.089000000     2.651000000
O     2.138000000    -2.041000000     1.290000000
H     2.189000000    -2.812000000     0.726000000
H     1.622000000    -1.410000000     0.787000000
O     2.311000000     4.714000000    -2.448000000
H     2.750000000     3.863000000    -2.444000000
H     1.715000000     4.680000000    -1.701000000
O    -0.180000000     3.351000000    -3.517000000
H    -0.946000000     2.855000000    -3.229000000
H     0.333000000     3.484000000    -2.719000000
O     5.196000000    -1.677000000     2.293000000
H     4.844000000    -2.487000000     2.662000000
H     4.488000000    -1.041000000     2.392000000
O     1.571000000     2.300000000     5.677000000
H     1.433000000     1.926000000     4.807000000
H     1.481000000     1.558000000     6.274000000
O    -1.531000000     4.032000000    -5.743000000
H    -0.968000000     3.822000000    -4.998000000
H    -0.926000000     4.312000000    -6.429000000
O     5.232000000    -1.255000000    -3.743000000
H     5.195000000    -2.202000000    -3.877000000
H     5.439000000    -1.152000000    -2.814000000
O     0.867000000    -2.913000000    -2.822000000
H     1.610000000    -2.413000000    -3.159000000
H     1.111000000    -3.129000000    -1.922000000
O     2.265000000    -2.736000000     4.527000000
H     1.486000000    -2.676000000     3.973000000
H     2.892000000    -3.234000000     4.004000000
O    -3.143000000    -1.989000000     3.878000000
H    -2.918000000    -1.329000000     4.534000000
H    -3.957000000    -1.671000000     3.489000000
O     5.309000000     2.256000000     0.707000000
H     5.207000000     2.648000000    -0.160000000
H     5.090000000     1.333000000     0.579000000
O    -0.508000000    -2.221000000     3.839000000
H    -1.456000000    -2.304000000     3.944000000
H    -0.309000000    -1.338000000     4.152000000
O     3.530000000    -0.154000000     4.184000000
H     3.051000000    -0.920000000     4.500000000
H     2.868000000     0.378000000     3.743000000
O    -0.679000000    -3.954000000     1.825000000
H    -0.645000000    -3.373000000     2.585000000
H     0.239000000    -4.116000000     1.606000000
O    -3.131000000    -0.469000000    -3.489000000
H    -3.322000000    -0.222000000    -4.393000000
H    -2.932000000     0.359000000    -3.051000000
O     3.459000000    -4.545000000    -2.417000000
H     3.646000000    -3.621000000    -2.250000000
H     2.966000000    -4.832000000    -1.648000000
O    -2.849000000    -4.664000000    -1.226000000
H    -2.482000000    -3.834000000    -1.531000000
H    -3.111000000    -4.492000000    -0.322000000
O    -2.586000000    -1.441000000    -6.727000000
H    -2.060000000    -1.492000000    -5.929000000
H    -2.323000000    -0.617000000    -7.136000000
O    -2.013000000     2.526000000     0.181000000
H    -1.899000000     2.287000000     1.101000000
H    -2.957000000     2.471000000     0.035000000
O     4.853000000     3.185000000     3.687000000
H     4.706000000     2.683000000     2.885000000
H     5.561000000     3.790000000     3.464000000
O     2.644000000    -1.074000000    -4.904000000
H     2.503000000    -0.149000000    -4.705000000
H     3.576000000    -1.217000000    -4.739000000
O    -4.202000000    -0.520000000     1.618000000
H    -5.154000000    -0.430000000     1.588000000
H    -3.875000000     0.378000000     1.553000000
O    -2.381000000    -0.034000000     5.468000000
H    -1.675000000     0.123000000     4.840000000
H    -2.010000000     0.222000000     6.313000000
O    -5.453000000    -1.621000000    -2.552000000
H    -5.390000000    -1.901000000    -1.639000000
H    -4.554000000    -1.403000000    -2.797000000
O    -0.411000000    -6.021000000    -0.482000000
H    -0.682000000    -6.207000000    -1.381000000
H    -1.158000000    -5.563000000    -0.097000000
O     4.067000000     3.294000000     6.333000000
H     4.464000000     3.283000000     5.463000000
H     3.124000000     3.270000000     6.167000000
O     0.822000000     4.647000000     6.687000000
H     0.999000000     5.448000000     6.195000000
H     1.206000000     3.950000000     6.155000000
O    -3.753000000    -4.854000000     4.372000000
H    -3.540000000    -4.784000000     5.302000000
H    -3.242000000    -4.159000000     3.956000000
O    -3.448000000    -3.319000000     1.253000000
H    -3.908000000    -2.514000000     1.490000000
H    -2.530000000    -3.139000000     1.455000000
O     2.984000000    -2.080000000    -1.304000000
H     2.879000000    -1.138000000    -1.166000000
H     3.539000000    -2.368000000    -0.579000000
O    -3.799000000     2.692000000    -5.983000000
H    -4.211000000     3.265000000    -6.628000000
H    -3.172000000     3.255000000    -5.529000000
O    -2.497000000     2.190000000    -2.576000000
H    -2.226000000     2.320000000    -1.668000000
H    -3.328000000     2.659000000    -2.647000000
O     3.539000000     5.458000000     1.740000000
H     2.781000000     5.170000000     2.250000000
H     4.248000000     4.877000000     2.016000000
O     1.394000000     1.381000000    -4.661000000
H     2.101000000     1.886000000    -5.063000000
H     0.797000000     2.042000000    -4.311000000
O    -0.376000000     5.353000000     3.944000000
H    -1.036000000     6.043000000     4.014000000
H    -0.736000000     4.625000000     4.451000000
O    -1.876000000    -3.077000000    -3.194000000
H    -2.160000000    -2.172000000    -3.321000000
H    -0.925000000    -3.018000000    -3.097000000
O     1.391000000    -2.487000000    -7.015000000
H     1.722000000    -2.056000000    -6.227000000
H     0.852000000    -3.207000000    -6.686000000
O    -1.372000000     3.107000000     4.667000000
H    -1.004000000     2.290000000     4.330000000
H    -2.196000000     2.846000000     5.080000000
O    -5.651000000     1.212000000     4.077000000
H    -4.795000000     1.480000000     3.742000000
H    -6.259000000     1.865000000     3.730000000
O     4.299000000     2.587000000    -1.875000000
H     4.877000000     3.269000000    -2.216000000
H     4.376000000     1.870000000    -2.505000000
O    -1.813000000    -5.682000000    -4.521000000
H    -1.982000000    -4.985000000    -3.888000000
H    -0.915000000    -5.960000000    -4.340000000
O     0.565000000     4.523000000    -0.551000000
H     0.796000000     4.072000000     0.261000000
H    -0.142000000     5.119000000    -0.300000000
O     0.840000000     0.168000000     7.124000000
H     1.010000000    -0.771000000     7.191000000
H    -0.090000000     0.259000000     7.330000000
O     6.138000000     0.021000000     4.685000000
H     5.192000000     0.121000000     4.790000000
H     6.262000000    -0.101000000     3.744000000
