158
-3019.85042
C    -0.681000000    -0.509000000     1.206000000
H    -1.148000000    -0.919000000     2.098000000
C    -1.135000000    -0.694000000    -0.093000000
H    -2.097000000    -1.146000000    -0.322000000
C    -0.438000000    -0.199000000    -1.145000000
H    -0.893000000    -0.301000000    -2.113000000
C     0.691000000     0.481000000    -0.915000000
H     1.236000000     1.029000000    -1.680000000
C     1.195000000     0.642000000     0.379000000
H     2.115000000     1.213000000     0.477000000
C     0.518000000     0.167000000     1.497000000
C     1.205000000     0.304000000     2.877000000
O     0.606000000     0.222000000     3.912000000
O     2.269000000     0.945000000     2.933000000
O     3.801000000     3.615000000     0.205000000
H     2.857000000     3.733000000     0.313000000
H     4.078000000     3.157000000     0.998000000
O     0.493000000    -2.825000000    -0.565000000
H    -0.275000000    -3.262000000    -0.198000000
H     0.272000000    -1.894000000    -0.544000000
O     1.233000000     3.419000000    -2.778000000
H     1.539000000     2.972000000    -3.567000000
H     1.429000000     2.809000000    -2.067000000
O     6.100000000    -0.882000000     0.457000000
H     6.560000000    -1.607000000     0.882000000
H     5.508000000    -1.305000000    -0.164000000
O    -2.247000000     3.385000000    -6.395000000
H    -2.712000000     3.656000000    -5.603000000
H    -2.926000000     3.337000000    -7.067000000
O    -3.017000000    -1.334000000    -5.574000000
H    -2.153000000    -1.667000000    -5.330000000
H    -3.453000000    -1.166000000    -4.739000000
O     3.230000000    -3.792000000    -2.204000000
H     3.071000000    -2.860000000    -2.057000000
H     3.615000000    -3.834000000    -3.080000000
O     1.808000000     2.013000000    -5.100000000
H     0.856000000     1.976000000    -5.193000000
H     2.137000000     1.392000000    -5.750000000
O     5.183000000     5.248000000     2.684000000
H     5.338000000     4.314000000     2.542000000
H     4.288000000     5.294000000     3.021000000
O     2.977000000     0.395000000     5.705000000
H     2.617000000     0.547000000     4.831000000
H     2.243000000     0.043000000     6.209000000
O    -3.085000000     2.617000000    -1.481000000
H    -3.401000000     2.353000000    -0.616000000
H    -2.226000000     2.202000000    -1.559000000
O     1.544000000    -5.886000000    -3.574000000
H     1.822000000    -6.393000000    -2.811000000
H     0.913000000    -5.256000000    -3.227000000
O     1.285000000     2.919000000     7.159000000
H     0.557000000     2.453000000     7.569000000
H     1.212000000     3.815000000     7.488000000
O    -3.319000000    -2.898000000     2.751000000
H    -3.274000000    -2.509000000     3.625000000
H    -4.187000000    -3.300000000     2.712000000
O     4.783000000     2.459000000     2.555000000
H     4.052000000     1.841000000     2.550000000
H     5.527000000     1.952000000     2.230000000
O     0.684000000     6.057000000    -2.434000000
H     0.083000000     6.484000000    -3.045000000
H     0.629000000     5.127000000    -2.654000000
O    -5.734000000    -3.818000000     1.829000000
H    -6.418000000    -4.488000000     1.855000000
H    -5.478000000    -3.774000000     0.908000000
O     2.164000000    -3.719000000     1.472000000
H     1.408000000    -3.569000000     2.039000000
H     1.924000000    -3.313000000     0.639000000
O     0.145000000    -4.109000000     3.384000000
H     0.895000000    -4.088000000     3.978000000
H     0.047000000    -5.033000000     3.154000000
O    -0.795000000     1.579000000    -5.097000000
H    -1.295000000     2.166000000    -5.664000000
H    -1.327000000     0.784000000    -5.047000000
O    -2.915000000    -0.795000000     6.712000000
H    -2.315000000    -1.168000000     6.066000000
H    -3.758000000    -0.755000000     6.261000000
O    -3.723000000    -5.390000000    -0.267000000
H    -3.261000000    -5.363000000    -1.105000000
H    -3.031000000    -5.318000000     0.390000000
O    -2.289000000     3.654000000     3.067000000
H    -1.760000000     3.319000000     3.791000000
H    -2.724000000     4.427000000     3.426000000
O    -3.612000000     1.251000000     3.092000000
H    -3.117000000     0.576000000     3.557000000
H    -3.066000000     2.034000000     3.155000000
O    -5.970000000     2.707000000    -2.154000000
H    -5.783000000     1.910000000    -2.651000000
H    -5.184000000     2.850000000    -1.626000000
O    -5.900000000    -2.540000000    -1.582000000
H    -6.720000000    -3.003000000    -1.756000000
H    -6.163000000    -1.763000000    -1.090000000
O    -0.471000000    -1.780000000     5.209000000
H    -0.241000000    -2.441000000     4.556000000
H    -0.070000000    -0.973000000     4.884000000
O     2.719000000     5.271000000     4.180000000
H     2.121000000     5.856000000     3.716000000
H     2.194000000     4.494000000     4.371000000
O    -4.019000000    -4.004000000    -3.822000000
H    -3.725000000    -4.662000000    -3.192000000
H    -4.407000000    -3.314000000    -3.284000000
O    -4.377000000     2.266000000     0.800000000
H    -5.059000000     2.802000000     1.206000000
H    -4.076000000     1.689000000     1.502000000
O     4.952000000    -0.802000000     4.126000000
H     5.162000000    -1.650000000     4.517000000
H     3.997000000    -0.753000000     4.158000000
O     1.292000000     3.649000000     1.438000000
H     0.364000000     3.737000000     1.655000000
H     1.633000000     3.036000000     2.089000000
O     1.155000000    -1.150000000     7.544000000
H     0.487000000    -1.224000000     8.226000000
H     0.768000000    -1.580000000     6.782000000
O    -1.629000000    -4.419000000     1.315000000
H    -2.253000000    -3.770000000     1.641000000
H    -0.937000000    -4.439000000     1.976000000
O    -0.394000000    -4.007000000    -3.015000000
H    -0.311000000    -3.367000000    -3.722000000
H     0.013000000    -3.584000000    -2.259000000
O     4.631000000     1.427000000    -1.392000000
H     5.178000000     1.103000000    -0.677000000
H     4.628000000     2.377000000    -1.280000000
O    -6.225000000     0.195000000    -4.147000000
H    -6.147000000     0.317000000    -5.093000000
H    -7.077000000    -0.225000000    -4.029000000
O    -4.044000000    -0.942000000    -3.063000000
H    -4.424000000    -1.375000000    -2.298000000
H    -4.782000000    -0.492000000    -3.475000000
O     1.544000000     3.060000000     4.567000000
H     1.668000000     2.152000000     4.291000000
H     1.615000000     3.032000000     5.521000000
O    -0.301000000    -1.932000000    -4.849000000
H     0.416000000    -1.398000000    -4.508000000
H     0.062000000    -2.350000000    -5.630000000
O    -3.267000000     4.275000000    -4.099000000
H    -3.182000000     5.073000000    -3.577000000
H    -2.923000000     3.582000000    -3.535000000
O    -1.182000000     1.814000000     4.842000000
H    -0.529000000     1.234000000     4.449000000
H    -0.936000000     1.859000000     5.766000000
O    -2.282000000    -5.569000000    -2.533000000
H    -1.622000000    -4.910000000    -2.749000000
H    -2.354000000    -6.104000000    -3.323000000
O     3.852000000    -1.147000000    -2.093000000
H     4.111000000    -0.226000000    -2.091000000
H     4.664000000    -1.623000000    -2.268000000
O     6.831000000     1.694000000     0.271000000
H     6.762000000     0.754000000     0.437000000
H     7.094000000     2.068000000     1.112000000
O     2.056000000    -0.897000000    -4.234000000
H     2.709000000    -0.926000000    -4.932000000
H     2.569000000    -0.828000000    -3.429000000
O    -1.404000000     1.420000000     7.796000000
H    -1.617000000     1.248000000     8.714000000
H    -1.873000000     0.740000000     7.311000000
O     5.087000000     2.458000000     5.503000000
H     5.010000000     2.484000000     4.549000000
H     4.487000000     1.763000000     5.773000000
