158
-3041.55067
C     0.336000000     0.422000000     1.360000000
H     0.730000000     0.681000000     2.339000000
C     0.543000000    -0.855000000     0.853000000
H     1.133000000    -1.594000000     1.389000000
C     0.194000000    -1.194000000    -0.396000000
H     0.332000000    -2.111000000    -0.839000000
C    -0.443000000    -0.229000000    -1.197000000
H    -0.726000000    -0.460000000    -2.221000000
C    -0.751000000     1.022000000    -0.703000000
H    -1.251000000     1.780000000    -1.301000000
C    -0.397000000     1.433000000     0.626000000
C    -0.594000000     2.847000000     1.164000000
O    -0.200000000     3.136000000     2.255000000
O    -1.101000000     3.697000000     0.405000000
O    -1.526000000    -1.215000000    -4.520000000
H    -1.901000000    -1.409000000    -3.661000000
H    -0.659000000    -1.618000000    -4.500000000
O    -2.337000000     4.704000000    -3.010000000
H    -2.077000000     3.919000000    -3.491000000
H    -1.539000000     4.987000000    -2.564000000
O    -0.132000000    -1.934000000     4.530000000
H     0.593000000    -1.326000000     4.673000000
H    -0.536000000    -2.031000000     5.393000000
O     5.141000000    -6.180000000     0.420000000
H     4.615000000    -5.671000000    -0.196000000
H     4.557000000    -6.333000000     1.163000000
O    -0.150000000    -6.915000000    -2.253000000
H     0.738000000    -7.223000000    -2.436000000
H    -0.244000000    -7.006000000    -1.305000000
O     2.759000000     3.348000000     1.104000000
H     3.512000000     2.890000000     1.477000000
H     2.081000000     3.282000000     1.777000000
O    -2.686000000    -0.773000000     1.126000000
H    -1.926000000    -0.555000000     0.586000000
H    -3.439000000    -0.507000000     0.597000000
O     0.659000000     3.189000000    -3.054000000
H     0.141000000     3.636000000    -2.385000000
H     1.442000000     2.891000000    -2.592000000
O     2.408000000     6.332000000     2.063000000
H     3.192000000     5.922000000     2.428000000
H     2.532000000     6.282000000     1.115000000
O     2.748000000    -3.817000000    -5.540000000
H     2.177000000    -4.327000000    -6.115000000
H     3.459000000    -4.417000000    -5.315000000
O    -1.868000000     2.033000000    -4.452000000
H    -1.007000000     1.916000000    -4.050000000
H    -2.065000000     1.185000000    -4.849000000
O     0.373000000     3.662000000     6.663000000
H     0.116000000     4.583000000     6.699000000
H     0.578000000     3.434000000     7.569000000
O     2.449000000     6.065000000    -2.233000000
H     1.522000000     5.937000000    -2.031000000
H     2.543000000     5.752000000    -3.133000000
O     4.252000000    -0.865000000    -0.593000000
H     4.986000000    -0.650000000    -1.169000000
H     4.603000000    -0.760000000     0.292000000
O    -4.763000000     2.152000000     1.527000000
H    -4.418000000     2.029000000     2.411000000
H    -4.424000000     3.005000000     1.254000000
O    -2.021000000    -4.670000000    -5.280000000
H    -2.450000000    -5.396000000    -4.827000000
H    -1.323000000    -4.395000000    -4.685000000
O    -1.764000000     7.408000000    -1.076000000
H    -1.391000000     7.532000000    -0.203000000
H    -2.685000000     7.205000000    -0.916000000
O     2.232000000    -0.316000000     5.040000000
H     2.207000000     0.565000000     4.666000000
H     2.831000000    -0.801000000     4.473000000
O    -3.314000000     1.973000000     4.420000000
H    -2.717000000     2.714000000     4.317000000
H    -2.759000000     1.201000000     4.312000000
O     2.814000000    -2.636000000    -1.954000000
H     2.399000000    -2.301000000    -2.748000000
H     3.300000000    -1.888000000    -1.605000000
O    -3.562000000     4.528000000     0.988000000
H    -3.635000000     5.478000000     0.900000000
H    -2.684000000     4.324000000     0.665000000
O     0.870000000     5.925000000     4.398000000
H     1.411000000     6.092000000     3.627000000
H     0.515000000     6.783000000     4.632000000
O    -3.369000000    -3.098000000    -2.510000000
H    -3.847000000    -3.851000000    -2.857000000
H    -2.461000000    -3.395000000    -2.451000000
O     2.799000000     2.170000000    -1.761000000
H     3.219000000     2.334000000    -0.917000000
H     2.149000000     1.492000000    -1.577000000
O    -0.425000000    -4.164000000    -2.988000000
H    -0.268000000    -4.901000000    -2.398000000
H     0.356000000    -3.616000000    -2.901000000
O    -1.454000000     4.408000000     4.314000000
H    -0.865000000     5.145000000     4.478000000
H    -1.082000000     3.971000000     3.547000000
O    -4.996000000     4.991000000    -2.395000000
H    -5.366000000     4.185000000    -2.035000000
H    -4.105000000     4.753000000    -2.649000000
O    -5.508000000     2.158000000    -2.336000000
H    -6.334000000     1.739000000    -2.092000000
H    -4.879000000     1.843000000    -1.688000000
O     3.083000000     4.545000000     5.978000000
H     2.206000000     4.779000000     5.674000000
H     3.097000000     3.588000000     5.957000000
O     3.601000000    -5.254000000    -1.536000000
H     3.433000000    -4.317000000    -1.443000000
H     4.003000000    -5.341000000    -2.400000000
O    -2.846000000    -6.871000000    -3.620000000
H    -2.417000000    -7.623000000    -4.028000000
H    -2.288000000    -6.652000000    -2.874000000
O    -1.309000000    -6.912000000     0.571000000
H    -0.587000000    -7.044000000     1.185000000
H    -2.097000000    -6.971000000     1.111000000
O     4.746000000    -1.371000000     2.484000000
H     5.431000000    -0.745000000     2.720000000
H     4.713000000    -1.980000000     3.222000000
O    -0.566000000     5.996000000     1.880000000
H    -0.612000000     5.055000000     1.713000000
H     0.270000000     6.120000000     2.329000000
O     4.887000000     1.861000000     1.517000000
H     5.798000000     1.791000000     1.232000000
H     4.919000000     1.707000000     2.461000000
O     1.850000000    -5.484000000     0.628000000
H     1.997000000    -5.706000000    -0.291000000
H     2.237000000    -4.614000000     0.729000000
O     3.340000000    -6.235000000     2.798000000
H     2.789000000    -6.076000000     3.564000000
H     2.746000000    -6.147000000     2.053000000
O     1.363000000    -1.927000000    -4.129000000
H     1.809000000    -2.657000000    -4.558000000
H     1.710000000    -1.147000000    -4.562000000
O    -4.445000000     5.960000000     3.226000000
H    -4.951000000     5.621000000     3.964000000
H    -4.131000000     5.179000000     2.771000000
O    -3.081000000     0.089000000    -6.402000000
H    -3.147000000    -0.767000000    -5.979000000
H    -2.564000000    -0.073000000    -7.191000000
O    -0.020000000    -4.432000000     2.704000000
H     0.187000000    -3.665000000     3.238000000
H     0.613000000    -4.403000000     1.987000000
O    -0.117000000     5.336000000    -1.659000000
H    -0.531000000     6.158000000    -1.393000000
H    -0.231000000     4.756000000    -0.906000000
O    -3.212000000     5.325000000     6.215000000
H    -2.722000000     4.993000000     5.463000000
H    -3.414000000     4.546000000     6.732000000
O     3.458000000    -3.203000000     0.683000000
H     3.192000000    -2.660000000    -0.060000000
H     3.834000000    -2.584000000     1.309000000
O    -1.972000000    -0.236000000     3.596000000
H    -2.183000000    -0.218000000     2.662000000
H    -1.418000000    -1.008000000     3.701000000
O    -2.567000000     7.797000000     1.961000000
H    -3.340000000     7.374000000     2.334000000
H    -1.861000000     7.164000000     2.091000000
O     1.913000000     2.541000000     4.016000000
H     2.188000000     3.457000000     3.966000000
H     1.018000000     2.541000000     3.678000000
O    -4.784000000     0.325000000    -0.238000000
H    -4.639000000     0.890000000     0.522000000
H    -5.719000000     0.123000000    -0.211000000
