158
-3000.47111
C     0.641000000     1.051000000    -0.870000000
H     1.187000000     1.691000000    -1.558000000
C     0.445000000    -0.302000000    -1.220000000
H     0.731000000    -0.730000000    -2.178000000
C    -0.120000000    -1.151000000    -0.299000000
H    -0.212000000    -2.159000000    -0.693000000
C    -0.681000000    -0.693000000     0.860000000
H    -1.265000000    -1.331000000     1.518000000
C    -0.455000000     0.616000000     1.234000000
H    -0.823000000     0.930000000     2.208000000
C     0.297000000     1.513000000     0.397000000
C     0.694000000     2.826000000     0.819000000
O     1.559000000     3.420000000     0.273000000
O     0.112000000     3.380000000     1.778000000
O     2.910000000    -1.615000000    -3.302000000
H     3.667000000    -1.118000000    -2.991000000
H     3.242000000    -2.503000000    -3.428000000
O    -1.683000000     7.159000000     3.724000000
H    -2.595000000     6.882000000     3.639000000
H    -1.660000000     7.665000000     4.536000000
O     1.681000000     0.830000000     5.967000000
H     1.308000000     1.572000000     6.442000000
H     2.296000000     1.225000000     5.349000000
O    -2.637000000     0.539000000    -1.263000000
H    -2.648000000    -0.309000000    -1.706000000
H    -1.751000000     0.613000000    -0.909000000
O    -6.017000000    -1.985000000    -2.197000000
H    -6.896000000    -2.097000000    -2.559000000
H    -5.730000000    -2.873000000    -1.984000000
O    -4.156000000    -0.459000000     1.014000000
H    -4.447000000     0.296000000     1.527000000
H    -3.487000000    -0.107000000     0.428000000
O     2.188000000     2.300000000    -4.271000000
H     1.846000000     2.845000000    -4.979000000
H     1.779000000     1.445000000    -4.407000000
O    -2.562000000     3.448000000     1.528000000
H    -2.897000000     2.952000000     2.275000000
H    -1.616000000     3.484000000     1.669000000
O     5.128000000    -3.784000000    -0.547000000
H     4.467000000    -3.954000000    -1.219000000
H     5.797000000    -4.453000000    -0.694000000
O    -1.910000000    -4.673000000    -0.991000000
H    -2.259000000    -5.495000000    -1.337000000
H    -1.325000000    -4.941000000    -0.283000000
O     3.008000000     7.255000000    -2.715000000
H     2.888000000     6.313000000    -2.594000000
H     3.265000000     7.348000000    -3.632000000
O    -0.731000000     6.612000000     1.201000000
H     0.009000000     6.007000000     1.227000000
H    -0.918000000     6.803000000     2.120000000
O    -5.220000000    -4.363000000    -1.360000000
H    -4.565000000    -5.054000000    -1.260000000
H    -6.045000000    -4.832000000    -1.481000000
O    -4.594000000    -0.506000000    -4.061000000
H    -4.391000000    -1.423000000    -4.245000000
H    -5.119000000    -0.533000000    -3.261000000
O    -1.081000000     0.101000000    -5.046000000
H    -0.168000000    -0.187000000    -5.073000000
H    -1.581000000    -0.661000000    -5.340000000
O     0.448000000    -0.718000000     3.945000000
H    -0.202000000    -0.128000000     3.563000000
H     0.912000000    -0.180000000     4.586000000
O    -0.453000000     2.068000000     4.096000000
H    -0.718000000     2.910000000     4.468000000
H    -0.205000000     2.272000000     3.194000000
O     3.485000000    -0.275000000    -0.410000000
H     2.565000000    -0.305000000    -0.674000000
H     3.561000000    -0.947000000     0.268000000
O    -1.801000000     4.918000000    -0.863000000
H    -1.490000000     5.614000000    -0.284000000
H    -2.176000000     4.265000000    -0.272000000
O     4.567000000     6.298000000     1.200000000
H     5.184000000     6.510000000     1.900000000
H     4.387000000     5.365000000     1.314000000
O    -5.521000000    -3.099000000     1.200000000
H    -5.041000000    -2.275000000     1.120000000
H    -5.614000000    -3.409000000     0.299000000
O    -4.469000000    -4.924000000     2.986000000
H    -4.655000000    -4.210000000     2.375000000
H    -4.820000000    -5.704000000     2.556000000
O     1.705000000    -0.598000000    -5.575000000
H     1.544000000    -1.306000000    -6.198000000
H     1.772000000    -1.036000000    -4.727000000
O    -0.012000000     5.445000000    -3.073000000
H    -0.703000000     5.089000000    -2.514000000
H     0.768000000     5.446000000    -2.519000000
O    -4.180000000    -3.045000000    -4.470000000
H    -5.063000000    -3.278000000    -4.759000000
H    -3.608000000    -3.371000000    -5.165000000
O    -0.645000000    -4.423000000    -3.769000000
H     0.262000000    -4.640000000    -3.551000000
H    -1.080000000    -4.332000000    -2.921000000
O     0.638000000    -7.844000000    -2.083000000
H     0.787000000    -7.046000000    -2.590000000
H    -0.290000000    -7.812000000    -1.852000000
O     1.947000000    -5.194000000    -2.878000000
H     2.642000000    -5.776000000    -3.184000000
H     2.141000000    -5.055000000    -1.951000000
O     2.743000000     4.689000000     4.848000000
H     2.210000000     4.971000000     4.104000000
H     3.066000000     3.824000000     4.596000000
O    -4.902000000     3.330000000    -0.314000000
H    -4.240000000     3.315000000     0.378000000
H    -5.534000000     2.659000000    -0.055000000
O     0.359000000    -3.323000000     5.295000000
H     0.528000000    -3.935000000     4.579000000
H     0.362000000    -2.461000000     4.878000000
O     5.035000000     2.076000000    -0.230000000
H     4.369000000     1.388000000    -0.249000000
H     5.236000000     2.240000000    -1.152000000
O     3.795000000     3.728000000     1.623000000
H     2.957000000     3.555000000     1.194000000
H     4.384000000     3.057000000     1.278000000
O    -4.920000000     1.547000000     2.519000000
H    -5.192000000     1.149000000     3.346000000
H    -5.648000000     2.120000000     2.278000000
O     2.211000000    -5.485000000    -0.028000000
H     2.844000000    -5.447000000     0.689000000
H     1.404000000    -5.796000000     0.381000000
O    -2.945000000     1.392000000     5.670000000
H    -2.323000000     1.531000000     6.385000000
H    -2.396000000     1.250000000     4.899000000
O     4.252000000     4.044000000    -4.692000000
H     4.112000000     4.987000000    -4.781000000
H     3.372000000     3.678000000    -4.604000000
O    -0.757000000     4.831000000     4.355000000
H    -0.521000000     4.736000000     3.432000000
H    -0.970000000     5.759000000     4.454000000
O    -4.037000000     3.670000000     4.451000000
H    -4.327000000     4.209000000     5.187000000
H    -3.690000000     2.876000000     4.858000000
O    -1.865000000    -4.838000000     3.671000000
H    -1.498000000    -4.014000000     3.993000000
H    -2.799000000    -4.658000000     3.564000000
O     2.306000000     4.603000000    -2.030000000
H     2.074000000     4.437000000    -1.116000000
H     2.462000000     3.734000000    -2.400000000
O    -1.464000000     4.238000000    -5.027000000
H    -1.944000000     3.428000000    -4.853000000
H    -0.920000000     4.366000000    -4.250000000
O    -0.530000000    -6.507000000     0.818000000
H    -0.239000000    -7.412000000     0.709000000
H    -1.423000000    -6.582000000     1.156000000
O    -2.146000000    -3.863000000    -6.047000000
H    -1.557000000    -3.998000000    -5.305000000
H    -1.622000000    -4.099000000    -6.814000000
O     1.798000000     5.319000000     2.432000000
H     1.265000000     4.621000000     2.051000000
H     2.685000000     5.141000000     2.120000000
O    -2.756000000    -2.333000000    -2.238000000
H    -3.502000000    -2.704000000    -2.709000000
H    -2.559000000    -2.977000000    -1.557000000
O     0.810000000    -5.081000000     2.981000000
H     1.334000000    -5.835000000     2.712000000
H    -0.091000000    -5.405000000     2.984000000
O    -2.236000000     2.125000000    -3.545000000
H    -1.875000000     1.494000000    -4.168000000
H    -2.181000000     1.684000000    -2.698000000
