158
-3031.80962
C    -0.241000000     0.910000000    -1.135000000
H    -0.410000000     1.463000000    -2.055000000
C    -0.139000000    -0.474000000    -1.219000000
H    -0.219000000    -0.971000000    -2.183000000
C     0.131000000    -1.226000000    -0.112000000
H     0.339000000    -2.276000000    -0.103000000
C     0.261000000    -0.596000000     1.094000000
H     0.524000000    -1.174000000     1.977000000
C    -0.047000000     0.753000000     1.244000000
H    -0.014000000     1.193000000     2.238000000
C    -0.209000000     1.540000000     0.116000000
C    -0.392000000     3.096000000     0.227000000
O    -0.670000000     3.892000000    -0.652000000
O    -0.299000000     3.435000000     1.392000000
O     1.995000000     0.930000000    -3.830000000
H     2.752000000     0.665000000    -4.353000000
H     2.094000000     0.451000000    -3.007000000
O    -0.230000000     2.833000000     5.472000000
H    -0.872000000     3.531000000     5.341000000
H     0.504000000     3.073000000     4.906000000
O     3.010000000    -6.002000000    -1.241000000
H     3.901000000    -5.760000000    -1.493000000
H     2.749000000    -5.330000000    -0.611000000
O    -3.373000000     2.262000000    -1.854000000
H    -2.958000000     1.436000000    -1.605000000
H    -2.992000000     2.474000000    -2.706000000
O     0.914000000    -4.542000000     4.416000000
H     0.561000000    -4.631000000     3.531000000
H     1.864000000    -4.533000000     4.295000000
O    -3.475000000    -0.617000000     0.673000000
H    -3.937000000     0.191000000     0.897000000
H    -2.614000000    -0.325000000     0.374000000
O     3.127000000    -8.053000000     0.769000000
H     3.172000000    -7.325000000     0.150000000
H     2.283000000    -8.468000000     0.589000000
O    -3.873000000     4.100000000     0.194000000
H    -3.471000000     3.622000000    -0.532000000
H    -3.831000000     3.493000000     0.933000000
O    -1.965000000     5.175000000     4.811000000
H    -1.290000000     5.784000000     4.512000000
H    -2.782000000     5.668000000     4.739000000
O     1.473000000     0.794000000     6.219000000
H     0.885000000     1.548000000     6.225000000
H     1.949000000     0.867000000     5.392000000
O     5.301000000    -2.996000000    -0.589000000
H     5.784000000    -3.459000000     0.095000000
H     5.365000000    -3.566000000    -1.355000000
O    -1.925000000    -2.804000000    -4.007000000
H    -1.779000000    -3.118000000    -3.115000000
H    -1.864000000    -1.851000000    -3.938000000
O     0.924000000     8.025000000    -3.025000000
H     0.923000000     7.173000000    -2.589000000
H     1.142000000     7.828000000    -3.936000000
O    -1.812000000     8.727000000    -1.200000000
H    -2.139000000     7.845000000    -1.380000000
H    -2.576000000     9.204000000    -0.877000000
O     3.401000000    -3.920000000     3.420000000
H     3.780000000    -3.041000000     3.391000000
H     4.140000000    -4.492000000     3.628000000
O    -4.317000000    -3.225000000    -2.565000000
H    -4.624000000    -4.063000000    -2.217000000
H    -3.932000000    -3.445000000    -3.413000000
O    -5.247000000     6.323000000    -2.482000000
H    -4.972000000     7.229000000    -2.627000000
H    -4.445000000     5.811000000    -2.580000000
O    -1.479000000     1.140000000    -6.712000000
H    -1.149000000     0.532000000    -6.051000000
H    -1.468000000     0.637000000    -7.526000000
O    -1.817000000     0.708000000     4.411000000
H    -1.610000000     1.314000000     3.701000000
H    -1.385000000     1.082000000     5.179000000
O    -2.390000000     3.080000000     2.910000000
H    -2.048000000     3.759000000     3.491000000
H    -1.753000000     3.031000000     2.197000000
O     3.554000000     0.054000000    -1.703000000
H     3.141000000    -0.678000000    -1.246000000
H     4.490000000    -0.058000000    -1.536000000
O    -2.257000000     5.775000000    -1.296000000
H    -1.519000000     5.231000000    -1.020000000
H    -2.932000000     5.617000000    -0.636000000
O     3.040000000     0.872000000     0.996000000
H     2.811000000    -0.053000000     0.906000000
H     2.200000000     1.319000000     1.099000000
O    -2.754000000    -2.604000000     2.234000000
H    -3.156000000    -2.335000000     3.060000000
H    -2.789000000    -1.822000000     1.685000000
O    -0.062000000    -0.317000000    -4.897000000
H     0.191000000    -1.239000000    -4.934000000
H     0.562000000     0.079000000    -4.288000000
O     3.541000000     0.874000000     4.257000000
H     4.323000000     1.035000000     4.784000000
H     3.644000000     1.443000000     3.494000000
O    -3.074000000    -2.010000000     4.745000000
H    -3.315000000    -1.711000000     5.621000000
H    -2.502000000    -1.322000000     4.405000000
O     3.198000000    -1.924000000     0.783000000
H     3.942000000    -2.341000000     0.348000000
H     2.629000000    -2.651000000     1.035000000
O     0.298000000     6.546000000     4.318000000
H     0.508000000     7.212000000     3.664000000
H     1.137000000     6.128000000     4.513000000
O     4.617000000    -1.416000000     3.177000000
H     4.266000000    -1.464000000     2.288000000
H     4.240000000    -0.614000000     3.540000000
O     3.325000000    -2.719000000    -5.255000000
H     3.491000000    -2.362000000    -4.382000000
H     3.988000000    -3.400000000    -5.365000000
O     3.469000000     2.993000000    -2.466000000
H     3.700000000     2.271000000    -1.882000000
H     2.850000000     2.609000000    -3.088000000
O     1.294000000     5.375000000    -1.967000000
H     0.661000000     4.849000000    -1.479000000
H     1.761000000     4.743000000    -2.513000000
O     0.228000000    -5.390000000    -5.312000000
H    -0.512000000    -5.319000000    -4.709000000
H     0.664000000    -6.204000000    -5.060000000
O    -4.276000000     1.201000000     4.031000000
H    -4.095000000     1.800000000     3.307000000
H    -3.412000000     0.935000000     4.343000000
O    -0.086000000     8.159000000     1.473000000
H     0.474000000     7.528000000     1.019000000
H    -0.436000000     8.713000000     0.775000000
O    -4.829000000     6.509000000     1.358000000
H    -4.096000000     6.679000000     1.950000000
H    -4.592000000     5.697000000     0.910000000
O     2.427000000    -4.679000000     1.078000000
H     1.590000000    -5.078000000     1.315000000
H     2.986000000    -4.822000000     1.842000000
O    -2.857000000    -5.212000000     1.264000000
H    -3.740000000    -5.464000000     1.534000000
H    -2.850000000    -4.257000000     1.326000000
O    -3.302000000     4.872000000    -3.645000000
H    -2.589000000     5.009000000    -3.021000000
H    -3.160000000     3.986000000    -3.980000000
O     1.756000000    -6.833000000    -3.428000000
H     2.045000000    -6.529000000    -2.568000000
H     2.392000000    -6.462000000    -4.040000000
O     1.626000000     3.727000000     3.536000000
H     2.474000000     4.168000000     3.471000000
H     1.209000000     3.886000000     2.689000000
O    -2.715000000     7.250000000     2.806000000
H    -1.824000000     7.526000000     2.593000000
H    -2.802000000     7.424000000     3.744000000
O    -1.427000000    -4.831000000    -1.915000000
H    -0.981000000    -5.278000000    -1.196000000
H    -1.806000000    -5.537000000    -2.437000000
O     1.137000000     5.750000000     0.708000000
H     0.311000000     5.283000000     0.835000000
H     1.233000000     5.813000000    -0.242000000
O    -3.323000000    -0.556000000    -2.605000000
H    -3.821000000    -0.168000000    -3.324000000
H    -3.746000000    -1.400000000    -2.448000000
O    -0.011000000    -5.804000000     1.809000000
H     0.282000000    -6.559000000     2.319000000
H    -0.949000000    -5.743000000     1.990000000
O    -2.578000000     2.570000000    -4.509000000
H    -1.938000000     2.148000000    -5.083000000
H    -3.379000000     2.060000000    -4.627000000
