158
-3059.09035
C     0.860000000     1.206000000     0.325000000
H     1.526000000     2.030000000     0.570000000
C     1.330000000    -0.065000000    -0.050000000
H     2.391000000    -0.292000000     0.021000000
C     0.432000000    -1.090000000    -0.191000000
H     0.815000000    -2.131000000    -0.343000000
C    -0.940000000    -0.940000000    -0.200000000
H    -1.681000000    -1.707000000    -0.413000000
C    -1.416000000     0.358000000     0.053000000
H    -2.494000000     0.500000000     0.066000000
C    -0.541000000     1.414000000     0.251000000
C    -1.070000000     2.773000000     0.405000000
O    -0.315000000     3.764000000     0.393000000
O    -2.309000000     2.915000000     0.317000000
O     3.221000000     0.763000000    -4.293000000
H     2.313000000     0.720000000    -3.993000000
H     3.425000000    -0.130000000    -4.569000000
O    -2.841000000     3.116000000     5.386000000
H    -2.349000000     3.730000000     4.841000000
H    -2.182000000     2.504000000     5.713000000
O     3.903000000    -5.394000000     2.969000000
H     4.292000000    -6.031000000     2.370000000
H     3.003000000    -5.293000000     2.660000000
O     3.077000000    -3.799000000    -0.926000000
H     2.538000000    -3.110000000    -1.314000000
H     3.044000000    -3.626000000     0.015000000
O    -3.844000000    -0.724000000    -2.155000000
H    -3.148000000    -1.101000000    -2.692000000
H    -4.458000000    -0.350000000    -2.787000000
O     2.722000000    -2.826000000     1.731000000
H     1.837000000    -2.612000000     2.024000000
H     3.269000000    -2.697000000     2.506000000
O    -4.710000000    -1.492000000     1.064000000
H    -3.918000000    -1.057000000     1.378000000
H    -5.189000000    -0.809000000     0.595000000
O     1.689000000     3.663000000    -3.390000000
H     2.616000000     3.827000000    -3.215000000
H     1.492000000     2.860000000    -2.908000000
O    -5.960000000     0.423000000    -0.428000000
H    -5.595000000     0.232000000    -1.293000000
H    -5.356000000     1.062000000    -0.049000000
O     3.480000000    -1.910000000    -4.630000000
H     4.251000000    -2.322000000    -4.239000000
H     2.769000000    -2.529000000    -4.465000000
O     5.777000000     2.931000000     0.901000000
H     6.031000000     2.269000000     0.259000000
H     6.589000000     3.145000000     1.360000000
O    -1.804000000    -4.332000000    -1.748000000
H    -2.562000000    -4.016000000    -1.256000000
H    -1.115000000    -4.429000000    -1.091000000
O     0.507000000     8.477000000    -0.481000000
H     0.469000000     7.699000000    -1.036000000
H    -0.079000000     9.103000000    -0.905000000
O    -3.666000000     6.259000000     3.139000000
H    -2.818000000     6.699000000     3.077000000
H    -3.817000000     5.906000000     2.263000000
O    -6.089000000     7.025000000    -0.110000000
H    -5.379000000     7.619000000    -0.352000000
H    -5.651000000     6.199000000     0.097000000
O    -0.129000000     0.516000000     3.518000000
H     0.216000000     1.262000000     3.027000000
H    -1.037000000     0.436000000     3.226000000
O    -5.484000000     4.217000000    -3.613000000
H    -4.948000000     4.982000000    -3.823000000
H    -5.044000000     3.816000000    -2.864000000
O    -4.672000000     2.064000000     1.149000000
H    -3.994000000     2.312000000     0.521000000
H    -4.632000000     2.741000000     1.825000000
O     4.871000000    -3.881000000    -3.211000000
H     4.649000000    -4.809000000    -3.290000000
H     4.500000000    -3.618000000    -2.369000000
O     4.524000000    -0.138000000     1.930000000
H     3.778000000    -0.709000000     1.748000000
H     4.131000000     0.695000000     2.190000000
O    -3.855000000     5.157000000     0.420000000
H    -3.318000000     5.694000000    -0.163000000
H    -3.396000000     4.318000000     0.461000000
O    -4.047000000    -3.620000000     3.170000000
H    -4.042000000    -3.359000000     4.091000000
H    -4.292000000    -2.824000000     2.697000000
O     0.710000000     0.925000000    -3.077000000
H     0.356000000     0.171000000    -3.549000000
H     0.765000000     0.633000000    -2.167000000
O     1.662000000    -3.744000000    -3.690000000
H     1.876000000    -4.562000000    -4.137000000
H     1.568000000    -3.991000000    -2.770000000
O     1.385000000     3.133000000     3.160000000
H     1.500000000     3.782000000     2.466000000
H     2.260000000     3.021000000     3.531000000
O     7.140000000    -1.070000000     1.005000000
H     7.312000000    -1.808000000     1.589000000
H     6.191000000    -0.953000000     1.038000000
O    -2.181000000     7.355000000    -0.800000000
H    -2.969000000     7.857000000    -1.009000000
H    -1.603000000     7.493000000    -1.551000000
O    -2.219000000    -2.265000000    -3.922000000
H    -2.831000000    -2.472000000    -4.629000000
H    -2.154000000    -3.075000000    -3.416000000
O     2.273000000    -1.088000000     3.963000000
H     2.193000000    -1.255000000     4.902000000
H     1.431000000    -0.707000000     3.714000000
O    -1.421000000    -6.548000000    -3.458000000
H    -0.541000000    -6.382000000    -3.795000000
H    -1.503000000    -5.964000000    -2.704000000
O    -0.424000000    -4.785000000     0.465000000
H     0.020000000    -4.236000000     1.111000000
H    -1.313000000    -4.885000000     0.807000000
O    -2.791000000    -0.010000000     3.612000000
H    -2.959000000    -0.183000000     4.538000000
H    -3.273000000     0.796000000     3.428000000
O     3.335000000    -6.655000000    -0.031000000
H     4.186000000    -6.923000000     0.315000000
H     3.535000000    -5.934000000    -0.628000000
O     3.702000000     4.908000000    -0.151000000
H     4.227000000     4.119000000    -0.017000000
H     3.896000000     5.174000000    -1.050000000
O     1.775000000     5.320000000     1.622000000
H     0.914000000     5.565000000     1.284000000
H     2.256000000     5.014000000     0.853000000
O     0.307000000    -1.405000000    -4.095000000
H    -0.587000000    -1.672000000    -3.881000000
H     0.837000000    -2.183000000    -3.924000000
O    -1.082000000     5.964000000     1.366000000
H    -0.864000000     5.106000000     1.002000000
H    -1.625000000     6.378000000     0.695000000
O     1.290000000    -6.646000000     1.985000000
H     1.700000000    -6.677000000     1.120000000
H     0.525000000    -7.216000000     1.908000000
O     0.173000000    -2.698000000     2.862000000
H     0.080000000    -3.075000000     3.737000000
H    -0.720000000    -2.465000000     2.606000000
O     0.004000000     5.326000000    -1.895000000
H    -0.243000000     4.863000000    -1.095000000
H     0.328000000     4.640000000    -2.479000000
O    -0.494000000    -7.461000000    -0.609000000
H    -1.334000000    -7.920000000    -0.621000000
H    -0.712000000    -6.569000000    -0.341000000
O    -0.955000000     4.313000000     3.910000000
H    -0.250000000     3.681000000     3.768000000
H    -1.035000000     4.774000000     3.075000000
O    -4.620000000     3.748000000     3.502000000
H    -4.194000000     4.602000000     3.426000000
H    -4.029000000     3.233000000     4.051000000
O    -2.933000000    -5.878000000     1.370000000
H    -3.621000000    -5.265000000     1.631000000
H    -3.347000000    -6.739000000     1.423000000
O    -0.173000000     8.405000000     2.557000000
H    -0.074000000     8.666000000     1.642000000
H    -0.314000000     7.459000000     2.523000000
O     4.098000000     2.865000000     3.503000000
H     4.511000000     3.419000000     2.841000000
H     4.737000000     2.172000000     3.668000000
O    -5.066000000    -3.311000000    -1.438000000
H    -5.189000000    -3.690000000    -0.567000000
H    -4.989000000    -2.370000000    -1.281000000
O    -3.564000000     2.421000000    -2.156000000
H    -2.831000000     2.404000000    -1.541000000
H    -3.394000000     1.691000000    -2.751000000
