158
-3049.60302
C     0.723000000     1.160000000     0.122000000
H     1.419000000     1.924000000     0.458000000
C     1.327000000    -0.073000000    -0.119000000
H     2.398000000    -0.262000000    -0.147000000
C     0.424000000    -1.094000000    -0.110000000
H     0.864000000    -2.111000000    -0.251000000
C    -0.932000000    -0.943000000    -0.166000000
H    -1.580000000    -1.795000000    -0.352000000
C    -1.478000000     0.357000000     0.050000000
H    -2.561000000     0.426000000    -0.005000000
C    -0.622000000     1.457000000     0.176000000
C    -1.073000000     2.860000000     0.461000000
O    -0.353000000     3.857000000     0.223000000
O    -2.140000000     3.021000000     1.093000000
O     3.310000000    -0.774000000    -5.018000000
H     2.590000000    -1.105000000    -4.481000000
H     3.418000000    -1.431000000    -5.706000000
O     0.596000000     1.335000000     3.356000000
H     0.887000000     2.193000000     3.664000000
H     1.374000000     0.947000000     2.956000000
O     4.527000000    -2.263000000    -2.767000000
H     4.217000000    -1.530000000    -3.298000000
H     4.510000000    -1.933000000    -1.869000000
O    -1.406000000     0.582000000    -3.103000000
H    -1.803000000    -0.188000000    -3.510000000
H    -1.304000000     0.340000000    -2.183000000
O    -5.682000000    -0.482000000    -0.235000000
H    -5.713000000    -0.464000000     0.722000000
H    -5.861000000     0.420000000    -0.497000000
O     1.836000000     2.037000000    -2.996000000
H     2.126000000     2.289000000    -3.873000000
H     1.648000000     1.101000000    -3.066000000
O    -4.983000000     2.300000000     2.152000000
H    -5.464000000     2.744000000     2.851000000
H    -4.226000000     2.862000000     1.988000000
O     5.411000000     0.298000000     0.485000000
H     4.893000000    -0.444000000     0.173000000
H     6.288000000     0.142000000     0.134000000
O     6.399000000    -4.160000000     2.670000000
H     6.263000000    -4.738000000     3.420000000
H     5.566000000    -4.179000000     2.198000000
O    -4.160000000    -5.193000000    -1.746000000
H    -4.793000000    -4.508000000    -1.529000000
H    -4.119000000    -5.738000000    -0.959000000
O     0.528000000     7.003000000    -1.496000000
H     0.688000000     6.115000000    -1.814000000
H     0.529000000     7.545000000    -2.285000000
O    -3.166000000     8.266000000     0.603000000
H    -2.439000000     7.658000000     0.464000000
H    -3.818000000     7.754000000     1.082000000
O    -5.457000000     6.117000000    -0.244000000
H    -5.562000000     6.348000000    -1.167000000
H    -4.784000000     5.437000000    -0.243000000
O     2.639000000     7.622000000     0.038000000
H     3.183000000     6.878000000    -0.220000000
H     1.832000000     7.516000000    -0.466000000
O    -0.843000000    -1.506000000     2.826000000
H    -0.396000000    -1.025000000     2.129000000
H    -1.750000000    -1.204000000     2.780000000
O    -2.554000000     0.795000000     3.102000000
H    -1.724000000     1.160000000     3.408000000
H    -2.700000000     1.211000000     2.253000000
O     4.930000000    -4.920000000    -3.183000000
H     5.865000000    -5.065000000    -3.328000000
H     4.825000000    -3.969000000    -3.231000000
O     4.622000000    -2.246000000     0.071000000
H     5.156000000    -2.512000000     0.819000000
H     3.903000000    -2.878000000     0.053000000
O    -3.717000000     4.122000000    -0.821000000
H    -3.210000000     4.296000000    -1.614000000
H    -3.179000000     3.507000000    -0.323000000
O     1.088000000    -1.821000000     5.028000000
H     1.813000000    -2.288000000     4.612000000
H     0.527000000    -1.551000000     4.301000000
O     4.223000000     5.474000000    -0.345000000
H     4.669000000     5.571000000     0.496000000
H     4.151000000     4.527000000    -0.470000000
O    -3.558000000    -2.532000000     2.897000000
H    -3.266000000    -2.310000000     3.780000000
H    -4.203000000    -1.859000000     2.681000000
O     1.393000000    -0.951000000    -3.107000000
H     1.122000000    -1.815000000    -3.417000000
H     1.001000000    -0.875000000    -2.237000000
O     3.140000000     0.158000000     2.447000000
H     3.564000000    -0.683000000     2.616000000
H     3.828000000     0.701000000     2.062000000
O    -2.080000000     5.049000000    -2.956000000
H    -2.221000000     5.988000000    -3.071000000
H    -1.170000000     4.977000000    -2.666000000
O    -3.684000000    -0.917000000    -3.779000000
H    -3.627000000    -1.157000000    -4.704000000
H    -4.464000000    -1.371000000    -3.461000000
O     1.762000000     7.242000000     2.682000000
H     2.169000000     7.205000000     1.816000000
H     0.971000000     6.710000000     2.597000000
O    -2.219000000    -6.802000000    -2.777000000
H    -1.539000000    -6.439000000    -2.210000000
H    -2.836000000    -6.081000000    -2.903000000
O    -0.314000000    -4.811000000    -1.031000000
H    -0.841000000    -4.354000000    -0.376000000
H     0.591000000    -4.605000000    -0.796000000
O     0.049000000     4.616000000     5.155000000
H    -0.540000000     4.782000000     4.419000000
H     0.844000000     4.266000000     4.752000000
O    -6.997000000     2.100000000     0.032000000
H    -6.350000000     2.023000000     0.733000000
H    -7.750000000     1.598000000     0.344000000
O     2.480000000    -3.856000000    -1.553000000
H     2.908000000    -3.526000000    -2.343000000
H     2.910000000    -4.693000000    -1.380000000
O     3.755000000     2.922000000    -0.707000000
H     4.397000000     2.330000000    -1.099000000
H     2.993000000     2.864000000    -1.282000000
O     1.908000000     4.234000000     1.509000000
H     1.046000000     4.124000000     1.109000000
H     2.513000000     3.823000000     0.892000000
O     1.549000000    -3.127000000    -4.777000000
H     0.705000000    -3.463000000    -5.077000000
H     2.145000000    -3.873000000    -4.854000000
O    -5.330000000    -0.370000000     2.713000000
H    -4.862000000     0.432000000     2.484000000
H    -5.375000000    -0.357000000     3.669000000
O     1.328000000    -5.221000000     1.464000000
H     0.519000000    -5.027000000     1.936000000
H     1.482000000    -6.152000000     1.622000000
O     3.846000000    -4.287000000     1.785000000
H     4.239000000    -4.817000000     1.091000000
H     2.915000000    -4.511000000     1.759000000
O    -1.962000000     4.605000000     3.065000000
H    -1.928000000     4.051000000     2.285000000
H    -2.488000000     5.359000000     2.799000000
O     3.476000000    -3.737000000     4.576000000
H     3.572000000    -4.590000000     5.001000000
H     3.172000000    -3.943000000     3.692000000
O    -1.925000000    -4.538000000     1.671000000
H    -2.501000000    -3.873000000     2.048000000
H    -1.151000000    -4.533000000     2.235000000
O     0.629000000     4.373000000    -2.159000000
H     0.404000000     4.181000000    -1.249000000
H     0.977000000     3.548000000    -2.499000000
O     2.164000000     3.498000000     4.109000000
H     3.059000000     3.367000000     4.422000000
H     2.268000000     3.799000000     3.206000000
O    -3.317000000     4.491000000     5.554000000
H    -2.767000000     4.538000000     4.771000000
H    -2.840000000     3.911000000     6.147000000
O    -0.955000000     6.531000000     0.879000000
H    -0.829000000     5.582000000     0.897000000
H    -0.385000000     6.834000000     0.172000000
O    -5.583000000    -2.816000000    -1.971000000
H    -6.525000000    -2.743000000    -2.126000000
H    -5.443000000    -2.368000000    -1.136000000
O    -0.001000000    -5.660000000     3.967000000
H     0.501000000    -6.473000000     3.920000000
H     0.182000000    -5.316000000     4.841000000
O    -3.983000000     1.798000000    -3.042000000
H    -4.161000000     0.894000000    -2.783000000
H    -3.120000000     1.762000000    -3.456000000
