158
-3017.71078
C     0.087000000     0.259000000    -1.498000000
H    -0.056000000     0.424000000    -2.563000000
C    -0.744000000    -0.657000000    -0.836000000
H    -1.371000000    -1.268000000    -1.481000000
C    -0.818000000    -0.755000000     0.504000000
H    -1.480000000    -1.421000000     1.094000000
C    -0.015000000     0.022000000     1.301000000
H     0.052000000    -0.058000000     2.383000000
C     0.840000000     0.993000000     0.725000000
H     1.317000000     1.718000000     1.380000000
C     0.985000000     1.027000000    -0.662000000
C     1.999000000     1.978000000    -1.260000000
O     2.267000000     2.079000000    -2.414000000
O     2.638000000     2.662000000    -0.424000000
O    -0.242000000     0.461000000     7.329000000
H    -0.472000000    -0.292000000     6.785000000
H     0.601000000     0.756000000     6.985000000
O    -0.763000000    -0.972000000     4.673000000
H    -0.207000000    -1.659000000     4.306000000
H    -1.648000000    -1.335000000     4.639000000
O     0.087000000    -0.122000000    -5.852000000
H    -0.791000000    -0.017000000    -5.484000000
H     0.329000000    -1.023000000    -5.641000000
O    -2.135000000     1.470000000     5.115000000
H    -1.498000000     1.064000000     4.526000000
H    -1.740000000     1.393000000     5.984000000
O     3.624000000    -0.527000000    -5.568000000
H     2.868000000    -0.656000000    -6.142000000
H     4.154000000     0.133000000    -6.014000000
O    -4.901000000     1.967000000     2.790000000
H    -4.619000000     1.732000000     3.674000000
H    -4.819000000     1.156000000     2.289000000
O     3.682000000     6.161000000    -4.211000000
H     2.969000000     5.542000000    -4.050000000
H     3.249000000     7.011000000    -4.289000000
O     6.543000000     1.533000000    -4.758000000
H     6.739000000     1.153000000    -5.614000000
H     5.611000000     1.750000000    -4.800000000
O    -3.106000000    -6.295000000    -2.259000000
H    -3.258000000    -6.164000000    -1.323000000
H    -3.872000000    -6.783000000    -2.560000000
O    -3.242000000    -2.877000000    -1.565000000
H    -3.532000000    -2.043000000    -1.934000000
H    -3.241000000    -3.480000000    -2.308000000
O     5.654000000     2.249000000     3.339000000
H     6.578000000     2.154000000     3.108000000
H     5.187000000     1.750000000     2.670000000
O     4.041000000     2.575000000    -4.559000000
H     3.829000000     2.499000000    -3.629000000
H     3.197000000     2.500000000    -5.004000000
O     1.472000000    -3.201000000     4.600000000
H     2.114000000    -2.622000000     4.190000000
H     1.928000000    -3.567000000     5.358000000
O     0.441000000     3.797000000     3.160000000
H    -0.473000000     3.905000000     3.423000000
H     0.551000000     4.398000000     2.423000000
O    -2.015000000     2.669000000     0.892000000
H    -1.704000000     2.990000000     0.046000000
H    -1.889000000     1.721000000     0.849000000
O    -1.399000000     3.802000000    -1.428000000
H    -0.962000000     4.512000000    -0.958000000
H    -1.022000000     3.829000000    -2.307000000
O     0.734000000     4.962000000     0.285000000
H     1.457000000     5.585000000     0.353000000
H     1.079000000     4.254000000    -0.260000000
O    -2.913000000    -4.005000000     0.887000000
H    -3.529000000    -4.597000000     0.457000000
H    -2.781000000    -3.297000000     0.257000000
O    -1.355000000     3.401000000    -4.119000000
H    -1.537000000     4.027000000    -4.820000000
H    -1.632000000     2.556000000    -4.475000000
O    -1.316000000    -4.379000000    -5.058000000
H    -2.217000000    -4.342000000    -4.735000000
H    -0.953000000    -5.173000000    -4.664000000
O     2.982000000     5.028000000     5.243000000
H     2.771000000     5.510000000     4.444000000
H     3.035000000     4.114000000     4.965000000
O     4.655000000    -1.082000000     0.611000000
H     4.846000000    -2.019000000     0.573000000
H     5.012000000    -0.732000000    -0.205000000
O    -2.256000000    -5.830000000     2.817000000
H    -1.377000000    -5.467000000     2.920000000
H    -2.650000000    -5.309000000     2.117000000
O     3.762000000    -2.063000000     3.678000000
H     4.189000000    -2.771000000     3.196000000
H     4.389000000    -1.341000000     3.649000000
O     5.754000000     5.070000000    -2.680000000
H     5.551000000     4.145000000    -2.542000000
H     4.958000000     5.435000000    -3.066000000
O     6.262000000    -0.039000000    -2.228000000
H     6.965000000     0.065000000    -2.870000000
H     5.524000000    -0.378000000    -2.734000000
O     3.567000000     5.950000000     0.571000000
H     4.256000000     5.290000000     0.648000000
H     3.685000000     6.318000000    -0.305000000
O    -4.721000000    -0.329000000    -1.604000000
H    -5.521000000    -0.784000000    -1.865000000
H    -4.983000000     0.587000000    -1.518000000
O     0.146000000    -4.833000000     2.989000000
H     0.505000000    -4.535000000     2.153000000
H     0.654000000    -4.361000000     3.649000000
O     4.985000000     2.438000000    -1.269000000
H     4.055000000     2.618000000    -1.132000000
H     5.009000000     1.537000000    -1.592000000
O     5.329000000     3.879000000     1.006000000
H     5.553000000     3.846000000     0.076000000
H     4.805000000     3.091000000     1.154000000
O     1.662000000     2.254000000    -5.876000000
H     1.083000000     1.687000000    -5.367000000
H     1.784000000     1.790000000    -6.704000000
O    -4.449000000    -0.321000000     1.015000000
H    -3.801000000    -1.009000000     1.171000000
H    -4.457000000    -0.211000000     0.065000000
O     2.663000000     2.471000000     4.091000000
H     3.407000000     2.269000000     3.523000000
H     1.970000000     2.743000000     3.489000000
O    -3.938000000     3.547000000    -2.725000000
H    -3.158000000     3.839000000    -2.255000000
H    -3.600000000     2.990000000    -3.427000000
O    -2.615000000     3.649000000     3.451000000
H    -2.664000000     3.317000000     2.555000000
H    -2.275000000     2.914000000     3.961000000
O    -3.033000000    -2.443000000     3.757000000
H    -3.937000000    -2.717000000     3.913000000
H    -2.534000000    -3.259000000     3.744000000
O     1.004000000    -7.389000000     1.816000000
H     0.764000000    -6.578000000     2.263000000
H     0.295000000    -7.997000000     2.026000000
O     3.857000000     1.276000000     1.513000000
H     4.065000000     0.398000000     1.194000000
H     3.339000000     1.669000000     0.810000000
O     3.385000000    -0.716000000    -2.986000000
H     2.848000000    -0.018000000    -2.610000000
H     3.414000000    -0.518000000    -3.922000000
O     3.142000000    -3.336000000    -2.375000000
H     3.458000000    -2.567000000    -2.849000000
H     2.866000000    -2.995000000    -1.524000000
O     0.070000000     6.504000000    -2.647000000
H     0.425000000     5.811000000    -3.205000000
H     0.752000000     7.176000000    -2.638000000
O    -2.776000000     1.536000000    -5.343000000
H    -2.947000000     2.239000000    -5.970000000
H    -3.132000000     0.752000000    -5.760000000
O    -3.953000000    -3.767000000    -4.288000000
H    -4.044000000    -3.440000000    -5.183000000
H    -4.850000000    -3.804000000    -3.955000000
O     2.049000000     1.155000000     6.321000000
H     2.264000000     1.568000000     5.485000000
H     2.881000000     1.121000000     6.792000000
O     1.769000000    -4.656000000     0.523000000
H     2.534000000    -4.600000000     1.096000000
H     1.929000000    -4.001000000    -0.155000000
O     1.957000000    -2.119000000    -0.312000000
H     2.612000000    -1.778000000     0.297000000
H     1.145000000    -1.678000000    -0.063000000
O     1.673000000     4.150000000    -3.725000000
H     1.843000000     3.341000000    -3.242000000
H     1.187000000     3.869000000    -4.500000000
