158
-3026.40731
C     1.243000000     0.108000000    -0.848000000
H     2.027000000     0.145000000    -1.600000000
C     0.191000000    -0.755000000    -1.040000000
H     0.306000000    -1.495000000    -1.828000000
C    -0.922000000    -0.784000000    -0.205000000
H    -1.666000000    -1.516000000    -0.369000000
C    -1.068000000     0.191000000     0.819000000
H    -1.926000000     0.189000000     1.486000000
C    -0.007000000     1.085000000     1.030000000
H    -0.104000000     1.772000000     1.868000000
C     1.136000000     1.013000000     0.245000000
C     2.229000000     2.102000000     0.472000000
O     3.263000000     1.893000000    -0.168000000
O     2.130000000     2.932000000     1.355000000
O     1.039000000    -4.093000000    -1.266000000
H     1.079000000    -4.759000000    -0.580000000
H     1.657000000    -3.420000000    -0.983000000
O    -5.915000000    -1.463000000     1.070000000
H    -6.862000000    -1.472000000     1.208000000
H    -5.718000000    -2.325000000     0.702000000
O    -0.462000000     3.325000000     5.435000000
H    -0.195000000     3.334000000     6.354000000
H     0.300000000     3.659000000     4.961000000
O    -5.167000000    -0.432000000     4.927000000
H    -5.706000000    -0.068000000     5.629000000
H    -5.378000000     0.103000000     4.162000000
O    -1.090000000    -0.029000000    -4.392000000
H    -0.821000000     0.641000000    -3.763000000
H    -0.647000000    -0.825000000    -4.098000000
O     2.892000000    -4.898000000    -3.361000000
H     2.561000000    -4.456000000    -2.579000000
H     3.844000000    -4.819000000    -3.296000000
O    -3.666000000     1.480000000    -4.054000000
H    -3.907000000     0.594000000    -3.784000000
H    -2.999000000     1.749000000    -3.423000000
O     4.105000000     0.090000000    -3.228000000
H     4.070000000     0.985000000    -2.891000000
H     4.298000000    -0.448000000    -2.460000000
O     7.225000000     0.027000000    -2.079000000
H     7.191000000     0.234000000    -1.145000000
H     6.510000000    -0.596000000    -2.212000000
O     1.766000000    -5.628000000     1.064000000
H     2.636000000    -5.237000000     1.145000000
H     1.236000000    -5.171000000     1.716000000
O    -5.397000000     2.605000000     0.730000000
H    -5.757000000     3.106000000    -0.002000000
H    -5.067000000     1.801000000     0.329000000
O    -4.400000000     4.018000000     3.051000000
H    -4.562000000     3.483000000     2.274000000
H    -3.900000000     3.447000000     3.635000000
O    -1.068000000    -4.235000000    -3.462000000
H    -0.353000000    -3.769000000    -3.029000000
H    -1.093000000    -5.089000000    -3.031000000
O     3.025000000    -2.647000000    -0.059000000
H     3.525000000    -3.164000000     0.573000000
H     2.682000000    -1.912000000     0.450000000
O     5.348000000    -1.952000000    -1.294000000
H     4.490000000    -2.221000000    -0.966000000
H     5.967000000    -2.273000000    -0.638000000
O    -0.795000000    -6.587000000     0.503000000
H     0.101000000    -6.427000000     0.799000000
H    -0.715000000    -6.723000000    -0.441000000
O     7.331000000     2.666000000    -3.131000000
H     6.412000000     2.927000000    -3.069000000
H     7.326000000     1.727000000    -2.948000000
O    -2.779000000     2.504000000     4.657000000
H    -2.969000000     1.595000000     4.889000000
H    -1.840000000     2.601000000     4.815000000
O    -4.637000000    -4.718000000     2.877000000
H    -4.382000000    -5.103000000     3.715000000
H    -4.285000000    -3.829000000     2.905000000
O    -2.398000000     1.733000000    -1.333000000
H    -3.268000000     1.373000000    -1.159000000
H    -1.860000000     1.424000000    -0.605000000
O    -2.601000000    -4.447000000    -0.198000000
H    -1.670000000    -4.347000000     0.004000000
H    -2.819000000    -5.327000000     0.109000000
O    -4.678000000    -0.970000000    -3.252000000
H    -5.587000000    -1.133000000    -3.503000000
H    -4.272000000    -1.837000000    -3.246000000
O     4.671000000    -1.682000000     3.544000000
H     5.591000000    -1.943000000     3.504000000
H     4.605000000    -0.942000000     2.941000000
O     1.527000000    -0.370000000     5.763000000
H     1.986000000     0.397000000     5.419000000
H     1.251000000    -0.110000000     6.642000000
O    -3.383000000    -2.318000000     3.894000000
H    -3.969000000    -1.641000000     4.232000000
H    -2.532000000    -1.885000000     3.824000000
O    -1.629000000    -3.267000000    -6.154000000
H    -1.585000000    -3.921000000    -5.457000000
H    -1.144000000    -2.517000000    -5.810000000
O     2.519000000     3.046000000    -4.103000000
H     3.016000000     3.794000000    -3.772000000
H     2.264000000     3.301000000    -4.989000000
O     6.496000000     1.661000000     4.115000000
H     5.889000000     2.000000000     3.458000000
H     7.277000000     2.207000000     4.024000000
O    -4.577000000     0.118000000    -0.461000000
H    -4.883000000    -0.516000000     0.187000000
H    -4.563000000    -0.368000000    -1.285000000
O     5.486000000     4.075000000     0.134000000
H     5.947000000     3.570000000    -0.536000000
H     4.919000000     3.437000000     0.567000000
O     1.918000000     0.606000000    -5.581000000
H     1.693000000     0.350000000    -4.687000000
H     2.803000000     0.965000000    -5.512000000
O    -5.342000000    -4.492000000     0.346000000
H    -4.458000000    -4.355000000     0.005000000
H    -5.213000000    -4.693000000     1.273000000
O     4.690000000     2.560000000    -2.291000000
H     4.395000000     2.266000000    -1.429000000
H     4.261000000     3.406000000    -2.416000000
O    -6.334000000     0.843000000     2.976000000
H    -6.498000000    -0.081000000     2.785000000
H    -6.005000000     1.203000000     2.152000000
O    -2.335000000     4.476000000    -1.128000000
H    -2.221000000     3.563000000    -1.393000000
H    -1.601000000     4.647000000    -0.537000000
O     2.247000000     5.455000000    -0.742000000
H     3.010000000     5.072000000    -1.175000000
H     2.488000000     6.370000000    -0.597000000
O     0.666000000    -3.212000000     2.685000000
H     1.119000000    -3.101000000     3.522000000
H     0.229000000    -2.373000000     2.536000000
O     3.385000000     5.410000000     2.413000000
H     3.549000000     5.782000000     1.547000000
H     2.853000000     4.633000000     2.243000000
O     4.694000000     0.309000000     1.529000000
H     4.350000000     0.700000000     0.726000000
H     5.568000000     0.688000000     1.625000000
O     4.602000000     2.994000000     2.718000000
H     4.638000000     3.943000000     2.593000000
H     3.845000000     2.713000000     2.203000000
O     0.157000000     4.901000000     0.859000000
H     0.616000000     4.156000000     1.246000000
H     0.802000000     5.302000000     0.275000000
O    -0.031000000     2.170000000    -3.029000000
H    -0.276000000     2.393000000    -2.131000000
H     0.773000000     2.665000000    -3.187000000
O     0.460000000     5.685000000     3.972000000
H     0.510000000     6.641000000     3.955000000
H     0.168000000     5.445000000     3.092000000
O     1.258000000    -2.262000000    -4.436000000
H     1.575000000    -2.239000000    -5.339000000
H     2.020000000    -2.530000000    -3.922000000
O    -3.998000000    -3.623000000    -3.858000000
H    -3.070000000    -3.694000000    -3.634000000
H    -4.219000000    -4.476000000    -4.234000000
O     3.211000000     1.783000000     5.175000000
H     3.893000000     1.695000000     4.510000000
H     3.039000000     2.723000000     5.220000000
O    -1.211000000    -0.689000000     5.722000000
H    -0.294000000    -0.427000000     5.642000000
H    -1.213000000    -1.622000000     5.511000000
O     4.060000000     5.040000000    -3.016000000
H     4.876000000     5.359000000    -3.401000000
H     3.384000000     5.609000000    -3.382000000
