158
-3045.24315
C     0.785000000    -1.014000000    -0.693000000
H     1.269000000    -1.738000000    -1.342000000
C    -0.284000000    -0.312000000    -1.227000000
H    -0.512000000    -0.446000000    -2.281000000
C    -1.054000000     0.453000000    -0.443000000
H    -1.890000000     1.083000000    -0.846000000
C    -0.708000000     0.661000000     0.884000000
H    -1.222000000     1.437000000     1.444000000
C     0.371000000    -0.024000000     1.457000000
H     0.687000000     0.150000000     2.483000000
C     1.200000000    -0.814000000     0.637000000
C     2.558000000    -1.262000000     1.116000000
O     3.222000000    -1.942000000     0.356000000
O     2.853000000    -1.186000000     2.269000000
O     0.977000000    -2.491000000     3.975000000
H     1.591000000    -2.010000000     3.419000000
H     0.114000000    -2.184000000     3.698000000
O     5.017000000    -5.100000000     1.778000000
H     5.227000000    -4.239000000     2.140000000
H     4.238000000    -4.949000000     1.241000000
O    -1.885000000     3.874000000    -0.862000000
H    -0.966000000     3.858000000    -1.130000000
H    -1.877000000     4.304000000    -0.007000000
O     5.123000000    -2.387000000     3.373000000
H     4.314000000    -1.923000000     3.159000000
H     5.817000000    -1.754000000     3.190000000
O    -2.426000000    -2.112000000     3.383000000
H    -1.941000000    -2.561000000     2.691000000
H    -3.247000000    -1.849000000     2.968000000
O    -3.032000000     1.758000000    -3.978000000
H    -2.710000000     2.229000000    -4.747000000
H    -2.250000000     1.600000000    -3.449000000
O     3.584000000    -0.158000000    -1.810000000
H     3.177000000     0.681000000    -1.595000000
H     3.522000000    -0.668000000    -1.002000000
O     1.837000000    -5.952000000    -3.110000000
H     2.261000000    -5.971000000    -3.968000000
H     1.768000000    -6.872000000    -2.857000000
O     3.501000000    -2.378000000    -3.839000000
H     4.446000000    -2.515000000    -3.907000000
H     3.403000000    -1.720000000    -3.150000000
O    -0.065000000    -3.239000000    -3.917000000
H     0.580000000    -2.976000000    -3.259000000
H     0.443000000    -3.343000000    -4.722000000
O    -0.355000000     2.941000000     3.595000000
H    -0.200000000     3.529000000     4.335000000
H    -0.511000000     2.087000000     3.998000000
O     8.112000000    -2.645000000     1.585000000
H     8.735000000    -2.143000000     1.060000000
H     7.280000000    -2.553000000     1.121000000
O    -1.421000000    -2.690000000     0.835000000
H    -1.786000000    -3.263000000     0.161000000
H    -1.218000000    -1.876000000     0.375000000
O     6.951000000     0.058000000     3.276000000
H     6.896000000     0.434000000     2.397000000
H     7.144000000     0.804000000     3.844000000
O     1.665000000     3.142000000     0.985000000
H     1.303000000     3.159000000     1.871000000
H     1.017000000     2.660000000     0.471000000
O     3.970000000     1.309000000     2.781000000
H     3.445000000     0.542000000     2.551000000
H     4.091000000     1.242000000     3.728000000
O     2.405000000    -4.405000000     0.455000000
H     1.742000000    -4.314000000    -0.230000000
H     2.883000000    -3.576000000     0.438000000
O     1.083000000    -5.061000000     2.703000000
H     1.657000000    -4.844000000     1.969000000
H     0.989000000    -4.239000000     3.184000000
O    -4.991000000    -0.153000000    -0.784000000
H    -5.121000000    -0.133000000    -1.733000000
H    -5.063000000    -1.079000000    -0.553000000
O    -2.955000000    -3.743000000    -1.776000000
H    -2.973000000    -4.617000000    -2.165000000
H    -2.659000000    -3.172000000    -2.485000000
O     3.385000000     2.343000000    -0.945000000
H     2.920000000     2.643000000    -0.164000000
H     3.773000000     3.136000000    -1.314000000
O     0.498000000    -0.541000000     6.957000000
H     0.502000000    -0.155000000     7.832000000
H     1.185000000    -1.206000000     6.985000000
O    -5.136000000    -0.623000000    -3.852000000
H    -4.340000000    -1.030000000    -4.194000000
H    -5.090000000     0.285000000    -4.154000000
O     0.782000000     4.327000000    -1.688000000
H     0.947000000     4.904000000    -2.434000000
H     1.388000000     4.631000000    -1.012000000
O    -0.947000000     4.247000000    -5.071000000
H    -1.189000000     4.870000000    -5.756000000
H    -1.494000000     4.489000000    -4.323000000
O     0.859000000     2.150000000    -4.166000000
H     0.678000000     2.398000000    -3.259000000
H     0.383000000     2.795000000    -4.690000000
O     0.069000000    -0.577000000    -5.148000000
H     0.043000000    -0.011000000    -5.920000000
H     0.101000000     0.030000000    -4.408000000
O     6.745000000    -3.962000000    -1.694000000
H     6.367000000    -3.429000000    -0.996000000
H     6.836000000    -4.833000000    -1.308000000
O    -1.952000000     1.661000000     7.004000000
H    -1.970000000     1.079000000     7.764000000
H    -1.460000000     1.176000000     6.342000000
O     6.646000000     1.012000000     0.842000000
H     5.890000000     1.551000000     0.609000000
H     7.373000000     1.393000000     0.349000000
O     4.430000000     3.895000000     2.692000000
H     3.706000000     4.128000000     3.274000000
H     4.303000000     2.963000000     2.513000000
O    -2.713000000    -2.255000000    -4.249000000
H    -1.789000000    -2.503000000    -4.255000000
H    -2.810000000    -1.674000000    -5.004000000
O    -5.440000000     3.239000000    -3.937000000
H    -5.755000000     3.387000000    -3.045000000
H    -4.696000000     2.646000000    -3.832000000
O     4.872000000     1.763000000     5.658000000
H     5.092000000     1.000000000     6.192000000
H     3.919000000     1.727000000     5.570000000
O    -1.183000000     0.273000000     4.548000000
H    -1.364000000    -0.466000000     5.129000000
H    -1.631000000     0.052000000     3.732000000
O    -2.648000000     5.444000000    -3.320000000
H    -2.523000000     5.023000000    -2.469000000
H    -3.597000000     5.537000000    -3.404000000
O     1.914000000     1.138000000     5.119000000
H     1.098000000     0.637000000     5.124000000
H     2.063000000     1.360000000     6.038000000
O    -4.370000000     0.856000000     1.848000000
H    -4.323000000     0.631000000     0.919000000
H    -4.624000000     0.041000000     2.281000000
O     0.469000000    -4.316000000    -1.460000000
H    -0.367000000    -3.882000000    -1.630000000
H     0.641000000    -4.824000000    -2.253000000
O    -4.497000000     3.574000000    -1.037000000
H    -3.594000000     3.344000000    -0.817000000
H    -4.644000000     4.413000000    -0.601000000
O     5.123000000     1.025000000    -3.603000000
H     4.428000000     1.541000000    -4.012000000
H     4.684000000     0.543000000    -2.903000000
O     5.901000000    -2.120000000     0.127000000
H     6.328000000    -1.263000000     0.141000000
H     4.967000000    -1.924000000     0.201000000
O     2.765000000    -1.870000000     5.833000000
H     3.392000000    -1.345000000     5.334000000
H     2.107000000    -2.133000000     5.190000000
O    -4.236000000     3.265000000     3.326000000
H    -5.000000000     3.228000000     3.901000000
H    -4.179000000     2.389000000     2.946000000
O     6.602000000    -4.044000000     5.000000000
H     6.122000000    -3.533000000     4.349000000
H     6.977000000    -4.772000000     4.504000000
O     1.758000000    -2.211000000    -6.269000000
H     1.346000000    -1.663000000    -5.600000000
H     2.687000000    -2.213000000    -6.038000000
O    -7.170000000     2.979000000    -0.775000000
H    -7.401000000     2.468000000     0.001000000
H    -6.213000000     2.979000000    -0.786000000
O    -1.926000000     4.747000000     2.406000000
H    -1.301000000     4.039000000     2.560000000
H    -2.751000000     4.420000000     2.763000000
