158
-3048.66449
C     1.061000000    -0.291000000    -1.022000000
H     1.795000000    -0.485000000    -1.800000000
C    -0.332000000    -0.222000000    -1.307000000
H    -0.718000000    -0.390000000    -2.309000000
C    -1.218000000     0.004000000    -0.209000000
H    -2.297000000     0.059000000    -0.458000000
C    -0.725000000     0.334000000     1.059000000
H    -1.319000000     0.592000000     1.932000000
C     0.635000000     0.228000000     1.301000000
H     1.028000000     0.490000000     2.280000000
C     1.503000000    -0.072000000     0.266000000
C     3.007000000    -0.098000000     0.548000000
O     3.788000000    -0.140000000    -0.386000000
O     3.377000000    -0.137000000     1.710000000
O     0.721000000     0.030000000     4.781000000
H     0.031000000    -0.562000000     4.480000000
H     1.511000000    -0.277000000     4.336000000
O     8.043000000     1.680000000     1.992000000
H     7.577000000     2.357000000     2.483000000
H     7.400000000     1.355000000     1.362000000
O     4.426000000    -4.419000000     3.573000000
H     4.399000000    -3.530000000     3.927000000
H     3.655000000    -4.848000000     3.945000000
O     2.629000000    -1.468000000     3.664000000
H     2.880000000    -0.982000000     2.878000000
H     3.460000000    -1.693000000     4.081000000
O    -1.644000000    -1.778000000     4.712000000
H    -2.122000000    -2.268000000     4.043000000
H    -2.264000000    -1.113000000     5.010000000
O     8.009000000     0.021000000    -1.163000000
H     8.915000000    -0.073000000    -1.459000000
H     7.817000000    -0.803000000    -0.715000000
O    -0.211000000     4.007000000    -3.729000000
H    -0.635000000     4.357000000    -2.945000000
H     0.162000000     4.774000000    -4.163000000
O    -6.413000000     3.437000000     1.862000000
H    -7.013000000     3.411000000     2.608000000
H    -5.591000000     3.086000000     2.204000000
O     3.625000000     0.924000000    -3.162000000
H     3.353000000     1.838000000    -3.085000000
H     3.491000000     0.559000000    -2.287000000
O    -0.889000000    -3.308000000    -2.885000000
H    -0.721000000    -2.653000000    -2.208000000
H    -0.109000000    -3.864000000    -2.879000000
O     1.594000000    -2.221000000    -3.935000000
H     1.903000000    -2.213000000    -4.841000000
H     2.344000000    -2.536000000    -3.429000000
O    -0.717000000     0.173000000    -5.645000000
H    -0.211000000    -0.533000000    -5.243000000
H    -0.148000000     0.941000000    -5.583000000
O     5.134000000    -2.081000000     4.767000000
H     5.568000000    -1.232000000     4.682000000
H     5.786000000    -2.642000000     5.187000000
O     5.991000000     1.371000000     0.342000000
H     5.179000000     0.877000000     0.231000000
H     6.596000000     0.986000000    -0.292000000
O    -2.527000000    -3.129000000     2.450000000
H    -2.936000000    -3.837000000     1.952000000
H    -1.737000000    -2.913000000     1.954000000
O    -3.159000000    -1.468000000    -5.807000000
H    -2.756000000    -2.297000000    -5.546000000
H    -2.422000000    -0.868000000    -5.917000000
O     6.813000000    -0.143000000     4.319000000
H     6.088000000     0.438000000     4.091000000
H     7.282000000    -0.276000000     3.496000000
O    -0.356000000     3.972000000     1.246000000
H    -1.203000000     3.530000000     1.307000000
H    -0.214000000     4.090000000     0.307000000
O     4.737000000     1.128000000     3.899000000
H     4.131000000     0.778000000     3.247000000
H     4.338000000     1.952000000     4.179000000
O    -3.168000000     5.817000000     1.766000000
H    -4.018000000     5.942000000     2.189000000
H    -3.159000000     4.893000000     1.515000000
O     2.226000000    -3.837000000     1.260000000
H     3.135000000    -4.076000000     1.075000000
H     2.254000000    -2.894000000     1.421000000
O    -0.018000000    -4.999000000     0.387000000
H     0.644000000    -5.557000000    -0.022000000
H     0.481000000    -4.278000000     0.772000000
O    -5.788000000    -3.340000000     0.142000000
H    -6.187000000    -2.518000000    -0.142000000
H    -6.265000000    -4.017000000    -0.337000000
O    -3.694000000    -3.543000000    -2.230000000
H    -2.742000000    -3.514000000    -2.327000000
H    -4.003000000    -2.744000000    -2.656000000
O     2.238000000     3.602000000    -2.771000000
H     1.298000000     3.453000000    -2.668000000
H     2.299000000     4.406000000    -3.286000000
O    -6.943000000    -0.972000000    -0.308000000
H    -6.896000000    -0.726000000    -1.232000000
H    -6.676000000    -0.184000000     0.164000000
O    -4.922000000     5.104000000    -1.973000000
H    -4.195000000     4.614000000    -1.588000000
H    -4.540000000     5.543000000    -2.733000000
O    -3.498000000    -5.303000000     0.871000000
H    -4.206000000    -4.735000000     0.565000000
H    -3.034000000    -5.557000000     0.073000000
O     1.163000000     1.930000000    -4.935000000
H     1.948000000     1.810000000    -4.400000000
H     0.789000000     2.756000000    -4.629000000
O     7.633000000    -2.230000000     0.384000000
H     7.365000000    -2.437000000     1.280000000
H     6.862000000    -2.427000000    -0.148000000
O     4.579000000     3.875000000     0.223000000
H     4.001000000     3.735000000     0.973000000
H     5.173000000     3.125000000     0.235000000
O    -3.257000000     1.245000000    -4.623000000
H    -2.395000000     1.011000000    -4.965000000
H    -3.564000000     1.943000000    -5.201000000
O     2.249000000     2.784000000     4.474000000
H     1.678000000     3.487000000     4.785000000
H     1.676000000     2.019000000     4.416000000
O    -4.486000000    -1.124000000    -3.014000000
H    -5.269000000    -0.630000000    -3.255000000
H    -3.798000000    -0.775000000    -3.582000000
O    -4.154000000     2.072000000     2.866000000
H    -4.430000000     2.481000000     3.687000000
H    -4.042000000     1.147000000     3.085000000
O     0.201000000     0.837000000     7.299000000
H     0.472000000     0.470000000     6.458000000
H    -0.625000000     0.396000000     7.498000000
O    -4.325000000    -1.299000000     3.466000000
H    -5.153000000    -1.651000000     3.792000000
H    -3.987000000    -1.980000000     2.884000000
O    -1.914000000    -3.948000000    -5.305000000
H    -1.399000000    -4.568000000    -5.822000000
H    -1.658000000    -4.121000000    -4.399000000
O    -3.223000000     2.726000000    -2.003000000
H    -3.558000000     2.350000000    -2.817000000
H    -2.286000000     2.535000000    -2.019000000
O     6.260000000    -0.444000000    -3.586000000
H     6.807000000    -0.136000000    -2.864000000
H     5.549000000     0.196000000    -3.638000000
O     5.210000000    -2.561000000    -0.927000000
H     5.255000000    -2.744000000    -1.865000000
H     4.670000000    -1.773000000    -0.862000000
O    -2.915000000     3.277000000     1.087000000
H    -3.541000000     2.908000000     1.710000000
H    -3.170000000     2.906000000     0.242000000
O     4.011000000    -3.565000000    -3.313000000
H     4.693000000    -3.287000000    -3.925000000
H     4.134000000    -4.510000000    -3.230000000
O     4.293000000    -0.096000000    -5.583000000
H     4.250000000    -1.004000000    -5.883000000
H     3.815000000    -0.095000000    -4.754000000
O    -6.694000000     0.429000000    -2.913000000
H    -7.524000000     0.680000000    -3.319000000
H    -6.433000000     1.197000000    -2.406000000
O    -5.723000000     2.096000000    -0.860000000
H    -5.919000000     2.454000000     0.006000000
H    -4.867000000     2.463000000    -1.083000000
O     4.960000000    -5.016000000     0.425000000
H     5.398000000    -4.683000000     1.209000000
H     5.040000000    -4.308000000    -0.214000000
O     2.332000000     3.770000000     1.977000000
H     1.375000000     3.784000000     1.949000000
H     2.542000000     3.206000000     2.721000000
