158
-3041.51092
C     1.064000000    -0.210000000    -1.081000000
H     1.408000000    -0.475000000    -2.078000000
C     0.086000000     0.763000000    -1.028000000
H    -0.163000000     1.384000000    -1.885000000
C    -0.692000000     0.970000000     0.129000000
H    -1.372000000     1.778000000     0.074000000
C    -0.555000000     0.150000000     1.194000000
H    -1.249000000     0.293000000     2.019000000
C     0.327000000    -0.923000000     1.128000000
H     0.219000000    -1.556000000     2.005000000
C     1.148000000    -1.120000000    -0.008000000
C     1.878000000    -2.351000000    -0.193000000
O     2.281000000    -2.598000000    -1.306000000
O     2.007000000    -3.123000000     0.766000000
O     1.160000000    -4.678000000     2.880000000
H     1.640000000    -4.648000000     3.707000000
H     1.583000000    -4.015000000     2.334000000
O    -1.796000000    -4.863000000    -3.612000000
H    -1.118000000    -5.278000000    -4.145000000
H    -1.431000000    -4.850000000    -2.728000000
O     1.627000000    -6.459000000    -3.233000000
H     0.795000000    -5.989000000    -3.287000000
H     1.841000000    -6.674000000    -4.141000000
O     4.859000000    -4.337000000     4.822000000
H     4.993000000    -4.985000000     4.130000000
H     4.536000000    -3.561000000     4.364000000
O     1.288000000     3.965000000     2.698000000
H     0.797000000     4.590000000     2.164000000
H     1.988000000     4.485000000     3.093000000
O    -3.008000000     0.162000000    -2.872000000
H    -2.895000000    -0.377000000    -2.089000000
H    -2.740000000    -0.405000000    -3.595000000
O     1.278000000     6.535000000    -0.013000000
H     1.236000000     5.720000000    -0.513000000
H     0.527000000     6.492000000     0.579000000
O    -1.313000000    -5.108000000     2.170000000
H    -0.448000000    -4.890000000     2.519000000
H    -1.246000000    -6.030000000     1.924000000
O     5.233000000    -6.375000000     2.991000000
H     4.667000000    -6.499000000     2.229000000
H     5.158000000    -7.194000000     3.481000000
O     3.589000000    -1.707000000    -3.521000000
H     3.055000000    -2.083000000    -2.822000000
H     4.489000000    -1.797000000    -3.209000000
O     1.377000000     3.821000000    -0.789000000
H     1.659000000     2.955000000    -0.496000000
H     1.186000000     3.708000000    -1.720000000
O    -5.056000000    -1.635000000    -0.543000000
H    -5.699000000    -1.459000000    -1.231000000
H    -4.213000000    -1.628000000    -0.997000000
O    -7.538000000     3.084000000    -1.178000000
H    -8.129000000     2.390000000    -1.470000000
H    -6.662000000     2.716000000    -1.290000000
O    -2.115000000    -1.744000000    -1.058000000
H    -1.303000000    -1.379000000    -0.706000000
H    -2.017000000    -2.691000000    -0.953000000
O     1.291000000     2.633000000     5.041000000
H     1.478000000     2.786000000     4.115000000
H     0.363000000     2.397000000     5.061000000
O     0.748000000    -5.571000000    -0.504000000
H     1.143000000    -4.876000000     0.022000000
H    -0.182000000    -5.348000000    -0.536000000
O     4.986000000    -2.016000000    -0.883000000
H     5.041000000    -1.973000000     0.071000000
H     4.140000000    -2.429000000    -1.056000000
O     6.119000000    -5.305000000    -3.579000000
H     5.917000000    -5.619000000    -4.460000000
H     5.264000000    -5.191000000    -3.164000000
O    -2.926000000     5.385000000    -1.955000000
H    -2.296000000     5.768000000    -2.566000000
H    -3.045000000     4.487000000    -2.266000000
O     4.160000000    -3.235000000     2.454000000
H     3.443000000    -3.302000000     1.824000000
H     4.896000000    -3.674000000     2.027000000
O     6.575000000    -3.908000000     1.267000000
H     6.652000000    -4.798000000     0.924000000
H     6.485000000    -3.358000000     0.489000000
O     4.277000000     0.371000000    -5.167000000
H     4.732000000    -0.138000000    -5.839000000
H     4.032000000    -0.274000000    -4.504000000
O     0.760000000     0.873000000    -4.947000000
H    -0.032000000     0.914000000    -5.482000000
H     1.095000000    -0.014000000    -5.082000000
O     1.518000000     2.908000000    -3.294000000
H     2.429000000     2.790000000    -3.565000000
H     1.026000000     2.293000000    -3.837000000
O     1.824000000    -1.647000000    -5.555000000
H     1.885000000    -2.496000000    -5.992000000
H     2.526000000    -1.662000000    -4.904000000
O    -2.781000000    -0.731000000     4.118000000
H    -3.184000000    -1.149000000     4.879000000
H    -3.398000000    -0.890000000     3.403000000
O    -3.765000000     2.224000000     1.858000000
H    -3.078000000     1.730000000     2.305000000
H    -4.578000000     1.927000000     2.268000000
O     0.507000000     4.870000000    -5.050000000
H     1.380000000     5.262000000    -5.059000000
H     0.550000000     4.204000000    -4.364000000
O    -1.941000000     1.052000000     6.650000000
H    -2.554000000     0.610000000     6.062000000
H    -1.689000000     1.847000000     6.178000000
O    -1.644000000    -4.361000000    -0.378000000
H    -2.575000000    -4.581000000    -0.395000000
H    -1.408000000    -4.388000000     0.549000000
O     4.185000000     1.420000000    -0.488000000
H     4.111000000     0.602000000    -0.980000000
H     3.585000000     1.312000000     0.249000000
O    -2.926000000     4.868000000     0.717000000
H    -3.061000000     5.012000000    -0.220000000
H    -3.017000000     3.922000000     0.830000000
O    -2.401000000     2.817000000    -2.334000000
H    -1.611000000     2.705000000    -1.805000000
H    -2.441000000     2.028000000    -2.874000000
O     2.550000000     1.819000000     1.770000000
H     2.342000000     2.704000000     2.069000000
H     1.736000000     1.329000000     1.884000000
O    -4.928000000    -1.001000000     2.272000000
H    -5.802000000    -1.352000000     2.446000000
H    -4.764000000    -1.212000000     1.353000000
O    -1.883000000     2.873000000     4.675000000
H    -2.556000000     3.427000000     5.070000000
H    -1.704000000     3.281000000     3.827000000
O    -5.226000000     1.930000000    -1.243000000
H    -5.218000000     1.136000000    -0.709000000
H    -4.382000000     1.924000000    -1.694000000
O     3.796000000    -6.545000000     0.673000000
H     2.863000000    -6.429000000     0.851000000
H     3.905000000    -6.254000000    -0.232000000
O     2.925000000    -1.400000000     4.046000000
H     3.222000000    -2.095000000     3.459000000
H     1.973000000    -1.501000000     4.073000000
O     4.635000000     0.033000000     2.378000000
H     4.043000000    -0.393000000     2.999000000
H     4.186000000     0.844000000     2.138000000
O    -6.261000000     4.843000000     0.875000000
H    -6.808000000     4.350000000     0.263000000
H    -5.456000000     4.331000000     0.943000000
O     1.391000000    -7.519000000     2.697000000
H     0.557000000    -7.498000000     2.228000000
H     1.476000000    -6.644000000     3.075000000
O     3.590000000    -4.770000000    -2.217000000
H     3.108000000    -4.007000000    -1.900000000
H     2.930000000    -5.460000000    -2.285000000
O     2.702000000    -4.274000000    -6.095000000
H     3.325000000    -4.967000000    -6.311000000
H     2.540000000    -4.381000000    -5.158000000
O     0.245000000    -2.100000000     4.630000000
H     0.220000000    -2.827000000     5.252000000
H    -0.639000000    -1.732000000     4.657000000
O     0.997000000    -3.450000000    -3.383000000
H     1.313000000    -3.110000000    -2.546000000
H     1.120000000    -2.727000000    -3.998000000
O    -5.809000000     1.255000000     3.420000000
H    -5.397000000     0.411000000     3.237000000
H    -5.792000000     1.328000000     4.374000000
O    -0.718000000     6.354000000     1.785000000
H    -0.862000000     6.716000000     2.659000000
H    -1.580000000     6.042000000     1.510000000
