158
-3012.72234
C    -0.502000000    -1.374000000    -0.410000000
H    -0.853000000    -2.367000000    -0.678000000
C    -1.377000000    -0.300000000    -0.221000000
H    -2.422000000    -0.404000000    -0.501000000
C    -0.823000000     0.920000000     0.197000000
H    -1.505000000     1.832000000     0.215000000
C     0.500000000     0.978000000     0.607000000
H     0.826000000     1.926000000     1.028000000
C     1.397000000    -0.093000000     0.410000000
H     2.433000000    -0.044000000     0.737000000
C     0.904000000    -1.291000000    -0.135000000
C     1.953000000    -2.335000000    -0.527000000
O     1.615000000    -3.521000000    -0.811000000
O     3.100000000    -2.016000000    -0.470000000
O    -0.150000000    -4.035000000    -4.874000000
H     0.633000000    -4.294000000    -4.388000000
H    -0.117000000    -3.078000000    -4.888000000
O     1.390000000     3.452000000    -1.899000000
H     1.076000000     2.547000000    -1.909000000
H     0.863000000     3.895000000    -2.565000000
O     1.319000000    -8.515000000     0.901000000
H     1.286000000    -7.647000000     0.498000000
H     1.703000000    -9.077000000     0.229000000
O     3.910000000    -5.656000000     1.331000000
H     3.754000000    -4.778000000     1.679000000
H     3.136000000    -5.844000000     0.800000000
O     0.484000000    -4.674000000     2.773000000
H     0.497000000    -3.888000000     3.319000000
H    -0.355000000    -5.090000000     2.973000000
O    -1.439000000     4.525000000     5.063000000
H    -1.217000000     4.365000000     5.981000000
H    -1.745000000     3.677000000     4.740000000
O    -0.980000000    -0.983000000    -4.861000000
H    -1.515000000    -1.370000000    -5.555000000
H    -0.252000000    -0.568000000    -5.324000000
O    -0.510000000     2.270000000    -5.380000000
H    -0.411000000     1.729000000    -4.597000000
H     0.125000000     2.977000000    -5.265000000
O     1.765000000     4.949000000     3.434000000
H     1.299000000     5.737000000     3.712000000
H     1.216000000     4.577000000     2.743000000
O     4.600000000    -0.989000000    -2.497000000
H     3.897000000    -0.593000000    -3.012000000
H     4.306000000    -1.886000000    -2.340000000
O     0.357000000     0.931000000    -2.809000000
H     0.991000000     0.366000000    -3.252000000
H    -0.077000000     0.355000000    -2.180000000
O     1.839000000    -4.460000000    -3.148000000
H     2.417000000    -3.858000000    -3.617000000
H     1.777000000    -4.094000000    -2.266000000
O     1.321000000     1.182000000     4.730000000
H     1.203000000     2.049000000     4.342000000
H     1.866000000     0.710000000     4.100000000
O     7.934000000    -2.940000000     0.613000000
H     8.514000000    -2.683000000     1.329000000
H     7.104000000    -2.506000000     0.808000000
O     7.122000000    -3.389000000    -2.368000000
H     6.189000000    -3.537000000    -2.212000000
H     7.403000000    -2.841000000    -1.636000000
O     0.307000000     4.946000000     1.116000000
H    -0.461000000     4.904000000     0.547000000
H     0.662000000     5.823000000     0.976000000
O     5.464000000    -4.117000000     3.046000000
H     4.893000000    -4.360000000     3.775000000
H     4.870000000    -3.758000000     2.387000000
O     3.951000000     3.277000000    -0.785000000
H     3.043000000     3.428000000    -1.049000000
H     4.071000000     3.827000000    -0.011000000
O    -1.471000000     0.174000000     4.960000000
H    -0.842000000     0.653000000     5.498000000
H    -1.511000000     0.668000000     4.141000000
O     3.204000000    -3.132000000     1.965000000
H     3.262000000    -2.709000000     1.109000000
H     2.579000000    -2.596000000     2.455000000
O    -2.178000000    -5.592000000    -0.628000000
H    -2.030000000    -6.160000000     0.128000000
H    -1.352000000    -5.615000000    -1.110000000
O    -1.662000000     4.990000000    -0.810000000
H    -1.982000000     5.841000000    -0.508000000
H    -2.150000000     4.353000000    -0.289000000
O     4.357000000    -6.902000000    -2.173000000
H     4.366000000    -6.952000000    -3.129000000
H     3.556000000    -7.359000000    -1.917000000
O     0.068000000    -6.655000000    -2.652000000
H     0.542000000    -5.839000000    -2.813000000
H     0.528000000    -7.307000000    -3.181000000
O    -5.077000000    -1.482000000    -0.684000000
H    -4.915000000    -2.396000000    -0.448000000
H    -4.814000000    -0.985000000     0.090000000
O    -2.804000000     0.460000000    -3.423000000
H    -2.073000000    -0.055000000    -3.764000000
H    -3.569000000    -0.103000000    -3.541000000
O    -5.118000000    -1.587000000    -3.768000000
H    -5.250000000    -1.466000000    -2.828000000
H    -4.788000000    -2.482000000    -3.850000000
O     1.227000000    -5.745000000     0.326000000
H     0.710000000    -5.602000000     1.118000000
H     1.344000000    -4.870000000    -0.045000000
O     2.779000000     0.241000000    -4.178000000
H     2.845000000     1.183000000    -4.021000000
H     3.411000000     0.070000000    -4.876000000
O    -3.440000000    -2.461000000     2.830000000
H    -3.848000000    -3.145000000     2.299000000
H    -3.596000000    -1.653000000     2.340000000
O    -4.412000000    -3.962000000     0.692000000
H    -3.774000000    -4.640000000     0.471000000
H    -5.240000000    -4.288000000     0.339000000
O     5.478000000    -1.495000000     0.500000000
H     4.725000000    -1.719000000    -0.048000000
H     5.234000000    -0.668000000     0.916000000
O     7.461000000     1.298000000     1.766000000
H     7.798000000     1.624000000     0.932000000
H     6.539000000     1.110000000     1.595000000
O     7.081000000    -0.189000000    -1.865000000
H     6.202000000    -0.506000000    -2.074000000
H     7.537000000    -0.174000000    -2.706000000
O    -3.306000000     3.907000000     1.236000000
H    -3.917000000     4.269000000     1.878000000
H    -3.864000000     3.456000000     0.603000000
O     4.766000000     0.994000000     1.227000000
H     4.506000000     1.873000000     1.501000000
H     4.725000000     1.019000000     0.271000000
O     1.695000000    -1.340000000     3.223000000
H     1.040000000    -1.082000000     2.574000000
H     1.184000000    -1.707000000     3.945000000
O    -4.664000000    -0.028000000     1.831000000
H    -4.316000000     0.822000000     1.562000000
H    -5.138000000     0.154000000     2.643000000
O    -0.092000000     5.368000000    -3.097000000
H    -0.399000000     6.088000000    -3.648000000
H    -0.636000000     5.419000000    -2.311000000
O    -4.808000000     5.290000000    -3.332000000
H    -4.282000000     4.491000000    -3.308000000
H    -5.323000000     5.214000000    -4.135000000
O     3.210000000     6.072000000    -0.956000000
H     3.499000000     6.396000000    -1.809000000
H     2.564000000     5.396000000    -1.162000000
O    -3.195000000     3.207000000    -2.922000000
H    -2.318000000     3.477000000    -2.650000000
H    -3.085000000     2.308000000    -3.229000000
O     4.508000000    -3.791000000    -1.873000000
H     3.852000000    -3.391000000    -1.302000000
H     4.465000000    -4.725000000    -1.670000000
O    -1.586000000     2.448000000     3.145000000
H    -2.421000000     2.719000000     2.764000000
H    -0.972000000     2.462000000     2.411000000
O    -5.385000000     5.062000000     2.252000000
H    -5.307000000     5.758000000     2.904000000
H    -6.318000000     4.850000000     2.239000000
O    -3.935000000     1.594000000     5.029000000
H    -3.226000000     0.976000000     5.208000000
H    -4.735000000     1.079000000     5.131000000
O    -4.909000000     2.433000000    -0.855000000
H    -5.830000000     2.370000000    -1.108000000
H    -4.439000000     2.530000000    -1.683000000
O     3.844000000     3.328000000     2.286000000
H     3.892000000     2.996000000     3.182000000
H     3.232000000     4.062000000     2.335000000
