158
-3038.23636
C     0.252000000    -0.895000000    -1.146000000
H     0.448000000    -1.500000000    -2.027000000
C    -0.667000000     0.163000000    -1.133000000
H    -1.252000000     0.431000000    -2.009000000
C    -0.799000000     0.931000000    -0.063000000
H    -1.444000000     1.805000000    -0.180000000
C    -0.151000000     0.558000000     1.128000000
H    -0.300000000     1.128000000     2.041000000
C     0.758000000    -0.503000000     1.189000000
H     1.240000000    -0.786000000     2.120000000
C     1.105000000    -1.124000000    -0.002000000
C     2.164000000    -2.213000000     0.012000000
O     2.313000000    -2.883000000    -1.025000000
O     2.893000000    -2.382000000     1.001000000
O    -0.814000000    -5.228000000    -3.750000000
H    -1.270000000    -4.743000000    -3.062000000
H    -0.344000000    -4.556000000    -4.244000000
O     0.187000000    -3.034000000    -5.326000000
H     1.008000000    -2.927000000    -4.847000000
H     0.439000000    -3.473000000    -6.138000000
O     4.459000000    -5.660000000     2.037000000
H     4.469000000    -4.761000000     2.363000000
H     4.432000000    -5.570000000     1.085000000
O     1.897000000    -2.024000000     6.281000000
H     2.595000000    -1.613000000     6.792000000
H     2.075000000    -2.962000000     6.343000000
O    -0.957000000    -0.592000000    -5.204000000
H    -0.006000000    -0.513000000    -5.129000000
H    -1.121000000    -1.535000000    -5.186000000
O    -0.326000000     3.378000000    -3.057000000
H     0.078000000     3.660000000    -3.877000000
H     0.412000000     3.142000000    -2.495000000
O    -6.000000000     1.196000000    -3.226000000
H    -6.769000000     0.898000000    -2.739000000
H    -6.081000000     0.774000000    -4.081000000
O     4.767000000    -0.780000000    -2.757000000
H     4.471000000    -0.123000000    -2.127000000
H     5.574000000    -1.129000000    -2.379000000
O     2.038000000     3.303000000    -1.461000000
H     2.214000000     2.622000000    -2.110000000
H     2.159000000     2.867000000    -0.618000000
O    -3.969000000    -2.337000000    -2.494000000
H    -4.477000000    -2.110000000    -1.716000000
H    -3.719000000    -1.493000000    -2.872000000
O     0.947000000    -5.098000000    -1.419000000
H     0.571000000    -5.359000000    -0.579000000
H     1.340000000    -4.241000000    -1.250000000
O    -1.336000000     5.166000000     5.030000000
H    -1.430000000     5.447000000     4.120000000
H    -1.371000000     4.210000000     4.991000000
O     2.206000000     3.316000000     4.168000000
H     2.189000000     4.244000000     3.932000000
H     1.336000000     2.993000000     3.932000000
O     6.698000000    -3.740000000     0.861000000
H     5.936000000    -4.035000000     0.362000000
H     6.345000000    -3.100000000     1.479000000
O    -3.629000000     0.496000000     4.037000000
H    -3.159000000     0.443000000     4.869000000
H    -3.532000000    -0.375000000     3.652000000
O     3.093000000    -5.592000000    -3.173000000
H     3.074000000    -4.844000000    -3.770000000
H     2.308000000    -5.489000000    -2.634000000
O     5.338000000    -1.881000000     2.043000000
H     4.578000000    -2.051000000     1.487000000
H     5.376000000    -0.927000000     2.112000000
O     0.440000000     0.205000000     5.007000000
H     1.215000000    -0.326000000     5.194000000
H    -0.272000000    -0.430000000     4.932000000
O     0.485000000    -4.053000000     4.102000000
H     0.638000000    -4.558000000     4.900000000
H     1.359000000    -3.895000000     3.747000000
O     1.656000000    -6.758000000     2.233000000
H     2.067000000    -5.959000000     2.563000000
H     1.254000000    -7.157000000     3.005000000
O    -3.853000000     3.033000000    -4.770000000
H    -3.278000000     2.417000000    -5.223000000
H    -3.801000000     2.777000000    -3.849000000
O    -3.761000000     1.825000000    -0.886000000
H    -4.581000000     1.483000000    -0.530000000
H    -3.560000000     1.248000000    -1.623000000
O     2.950000000    -3.486000000     3.322000000
H     2.785000000    -3.159000000     2.437000000
H     3.695000000    -2.972000000     3.632000000
O     7.137000000    -2.215000000    -1.430000000
H     7.341000000    -1.390000000    -0.990000000
H     6.923000000    -2.819000000    -0.718000000
O    -5.807000000     3.801000000    -1.601000000
H    -5.415000000     2.993000000    -1.933000000
H    -5.076000000     4.275000000    -1.203000000
O     1.709000000     0.170000000    -5.802000000
H     2.001000000     1.012000000    -6.154000000
H     2.093000000    -0.480000000    -6.390000000
O     2.763000000     1.452000000    -3.286000000
H     2.092000000     0.825000000    -3.557000000
H     3.468000000     1.339000000    -3.923000000
O     4.866000000    -2.059000000    -5.097000000
H     5.193000000    -1.471000000    -5.779000000
H     4.656000000    -1.481000000    -4.364000000
O    -3.539000000    -1.905000000     3.201000000
H    -4.068000000    -2.665000000     2.960000000
H    -3.119000000    -1.637000000     2.384000000
O    -2.807000000     3.011000000     1.708000000
H    -3.733000000     3.012000000     1.953000000
H    -2.794000000     2.644000000     0.824000000
O    -1.001000000    -2.047000000     4.950000000
H    -0.478000000    -2.731000000     4.531000000
H    -1.907000000    -2.282000000     4.748000000
O     4.521000000     0.550000000    -0.220000000
H     3.800000000    -0.052000000    -0.036000000
H     4.415000000     1.254000000     0.420000000
O    -5.688000000    -1.802000000    -0.377000000
H    -5.964000000    -2.542000000     0.164000000
H    -4.849000000    -1.532000000    -0.005000000
O    -1.650000000     5.385000000     2.243000000
H    -1.904000000     5.848000000     1.445000000
H    -2.098000000     4.541000000     2.183000000
O    -3.379000000     0.096000000    -3.660000000
H    -2.613000000     0.116000000    -4.234000000
H    -4.126000000     0.150000000    -4.256000000
O     3.483000000     2.958000000     1.489000000
H     2.939000000     2.497000000     2.128000000
H     3.002000000     3.765000000     1.304000000
O    -3.377000000    -0.648000000     0.687000000
H    -3.612000000     0.245000000     0.435000000
H    -2.441000000    -0.713000000     0.496000000
O    -0.954000000     2.445000000     4.189000000
H    -1.414000000     2.207000000     3.384000000
H    -0.667000000     1.609000000     4.558000000
O    -2.667000000     4.455000000    -1.313000000
H    -3.006000000     3.577000000    -1.141000000
H    -1.819000000     4.307000000    -1.731000000
O    -0.197000000     7.007000000     0.003000000
H     0.461000000     6.369000000     0.280000000
H    -0.637000000     7.264000000     0.813000000
O     3.070000000    -4.699000000     5.811000000
H     3.306000000    -4.204000000     5.026000000
H     3.045000000    -5.610000000     5.520000000
O    -6.172000000     1.032000000     0.509000000
H    -6.749000000     0.580000000    -0.107000000
H    -6.246000000     0.530000000     1.320000000
O    -1.482000000     2.062000000    -5.831000000
H    -1.251000000     1.146000000    -5.676000000
H    -0.687000000     2.549000000    -5.612000000
O     4.304000000    -4.451000000    -0.413000000
H     3.658000000    -3.762000000    -0.260000000
H     4.034000000    -4.853000000    -1.239000000
O    -1.854000000    -3.874000000     1.860000000
H    -1.332000000    -3.347000000     2.465000000
H    -2.583000000    -4.196000000     2.390000000
O     2.367000000    -2.930000000    -3.656000000
H     2.344000000    -2.703000000    -2.726000000
H     3.212000000    -2.601000000    -3.962000000
O    -6.707000000     3.589000000     1.715000000
H    -6.665000000     2.895000000     1.057000000
H    -6.210000000     3.246000000     2.458000000
O     1.374000000     4.565000000     1.727000000
H     1.714000000     5.153000000     2.401000000
H     0.429000000     4.545000000     1.880000000
