158
-3042.74915
C     0.719000000    -1.032000000    -0.830000000
H     1.109000000    -1.772000000    -1.524000000
C    -0.603000000    -0.634000000    -1.013000000
H    -1.136000000    -1.044000000    -1.867000000
C    -1.179000000     0.341000000    -0.154000000
H    -2.223000000     0.678000000    -0.405000000
C    -0.460000000     0.751000000     0.893000000
H    -0.927000000     1.478000000     1.553000000
C     0.825000000     0.405000000     1.145000000
H     1.414000000     0.814000000     1.962000000
C     1.474000000    -0.450000000     0.202000000
C     2.918000000    -0.916000000     0.422000000
O     3.572000000    -1.348000000    -0.534000000
O     3.481000000    -0.578000000     1.432000000
O     1.726000000    -2.369000000     3.304000000
H     2.338000000    -1.774000000     2.870000000
H     1.130000000    -1.793000000     3.782000000
O     0.952000000     3.559000000    -0.493000000
H     0.655000000     2.731000000    -0.870000000
H     1.904000000     3.473000000    -0.448000000
O     5.001000000    -2.033000000     3.190000000
H     4.365000000    -1.878000000     2.491000000
H     4.963000000    -1.243000000     3.728000000
O    -3.498000000     1.467000000    -2.819000000
H    -2.909000000     2.105000000    -2.415000000
H    -3.823000000     0.944000000    -2.087000000
O    -1.022000000    -6.218000000    -1.966000000
H    -0.493000000    -7.015000000    -1.982000000
H    -0.384000000    -5.507000000    -1.902000000
O    -6.734000000     4.363000000    -1.415000000
H    -6.883000000     4.980000000    -0.698000000
H    -5.818000000     4.105000000    -1.322000000
O     4.409000000     0.837000000    -1.662000000
H     4.460000000     1.313000000    -0.833000000
H     4.228000000    -0.068000000    -1.408000000
O    -4.083000000     4.842000000    -2.978000000
H    -3.172000000     4.556000000    -3.045000000
H    -4.323000000     5.090000000    -3.871000000
O     3.416000000    -3.076000000    -2.553000000
H     2.492000000    -3.320000000    -2.607000000
H     3.478000000    -2.547000000    -1.758000000
O     1.336000000     2.651000000     4.071000000
H     1.745000000     1.814000000     3.853000000
H     1.267000000     2.643000000     5.026000000
O    -1.286000000    -1.993000000     1.733000000
H    -1.502000000    -2.638000000     1.060000000
H    -0.637000000    -1.423000000     1.320000000
O     5.927000000     0.482000000     4.791000000
H     6.459000000     1.043000000     4.226000000
H     6.467000000     0.343000000     5.568000000
O     2.357000000     4.199000000     2.130000000
H     1.620000000     4.507000000     1.603000000
H     1.955000000     3.657000000     2.809000000
O    -1.425000000    -3.861000000    -4.510000000
H    -1.877000000    -3.062000000    -4.781000000
H    -1.272000000    -4.338000000    -5.326000000
O     3.334000000     0.614000000     3.774000000
H     3.630000000     0.267000000     2.932000000
H     4.138000000     0.889000000     4.216000000
O    -3.423000000     4.532000000     2.324000000
H    -3.193000000     5.454000000     2.436000000
H    -2.929000000     4.078000000     3.006000000
O     3.630000000    -5.386000000    -0.239000000
H     3.649000000    -6.338000000    -0.342000000
H     3.379000000    -5.057000000    -1.103000000
O     2.676000000    -4.915000000     2.709000000
H     3.078000000    -5.052000000     1.851000000
H     2.438000000    -3.988000000     2.717000000
O    -4.705000000    -0.544000000    -1.240000000
H    -4.073000000    -1.236000000    -1.046000000
H    -5.204000000    -0.877000000    -1.986000000
O    -2.663000000    -0.526000000    -4.588000000
H    -3.418000000    -0.887000000    -5.052000000
H    -3.039000000     0.103000000    -3.972000000
O    -3.277000000    -3.088000000    -1.132000000
H    -3.823000000    -3.801000000    -0.800000000
H    -3.124000000    -3.311000000    -2.050000000
O     4.245000000     2.989000000     0.501000000
H     3.706000000     3.327000000     1.216000000
H     4.648000000     3.768000000     0.117000000
O    -6.067000000    -2.334000000     2.033000000
H    -5.831000000    -2.851000000     2.803000000
H    -6.168000000    -2.979000000     1.333000000
O     5.797000000    -0.313000000    -3.899000000
H     5.059000000    -0.913000000    -4.007000000
H     5.569000000     0.212000000    -3.132000000
O     1.950000000     2.100000000    -2.929000000
H     2.030000000     1.770000000    -3.824000000
H     2.521000000     1.532000000    -2.413000000
O    -1.539000000     3.386000000    -2.596000000
H    -1.609000000     3.991000000    -3.335000000
H    -0.666000000     3.547000000    -2.238000000
O    -0.558000000     1.124000000    -4.447000000
H    -0.387000000     1.356000000    -3.535000000
H    -1.143000000     0.368000000    -4.396000000
O     1.020000000    -1.141000000    -4.846000000
H     0.657000000    -0.954000000    -5.712000000
H     1.040000000    -0.291000000    -4.406000000
O     6.093000000    -4.002000000    -1.035000000
H     5.221000000    -4.030000000    -0.641000000
H     6.693000000    -4.101000000    -0.295000000
O     6.154000000     1.356000000     1.668000000
H     5.479000000     1.909000000     1.273000000
H     5.884000000     0.462000000     1.459000000
O    -7.392000000     0.087000000     2.602000000
H    -6.968000000    -0.769000000     2.667000000
H    -6.808000000     0.601000000     2.043000000
O    -6.020000000     0.465000000    -4.307000000
H    -6.465000000     0.089000000    -3.547000000
H    -5.427000000     1.120000000    -3.938000000
O    -2.934000000    -3.478000000     3.227000000
H    -3.556000000    -2.916000000     3.690000000
H    -2.237000000    -2.885000000     2.947000000
O     0.238000000     0.383000000     5.286000000
H     0.805000000     0.338000000     6.056000000
H    -0.329000000    -0.385000000     5.361000000
O    -4.629000000     0.298000000     5.184000000
H    -4.254000000    -0.446000000     5.656000000
H    -4.472000000     0.100000000     4.261000000
O    -1.743000000     5.207000000    -0.220000000
H    -0.834000000     5.042000000    -0.471000000
H    -1.704000000     5.997000000     0.319000000
O    -3.877000000    -0.219000000     2.525000000
H    -2.936000000    -0.322000000     2.384000000
H    -4.224000000     0.014000000     1.664000000
O     0.866000000    -4.239000000    -2.772000000
H     0.216000000    -3.888000000    -3.381000000
H     1.270000000    -4.966000000    -3.245000000
O    -3.749000000     3.462000000    -0.408000000
H    -3.618000000     3.823000000     0.469000000
H    -2.938000000     3.665000000    -0.874000000
O     5.822000000     2.873000000    -2.832000000
H     5.087000000     3.467000000    -2.985000000
H     5.417000000     2.072000000    -2.498000000
O     6.344000000    -1.266000000    -0.155000000
H     6.715000000    -1.776000000    -0.875000000
H     5.403000000    -1.435000000    -0.202000000
O     4.962000000    -4.453000000     4.486000000
H     4.930000000    -3.562000000     4.138000000
H     4.111000000    -4.829000000     4.262000000
O     2.765000000    -1.958000000     6.500000000
H     3.011000000    -1.633000000     5.634000000
H     2.909000000    -2.903000000     6.451000000
O    -1.787000000     2.866000000     4.341000000
H    -1.031000000     2.284000000     4.418000000
H    -2.541000000     2.304000000     4.518000000
O     3.641000000    -2.030000000    -5.154000000
H     2.826000000    -1.528000000    -5.158000000
H     3.622000000    -2.510000000    -4.326000000
O    -5.785000000     1.370000000     0.588000000
H    -5.488000000     0.603000000     0.099000000
H    -5.404000000     2.114000000     0.121000000
O     5.201000000    -4.890000000    -3.405000000
H     5.952000000    -5.023000000    -2.828000000
H     4.845000000    -4.041000000    -3.144000000
O    -0.815000000     5.299000000     4.803000000
H    -1.092000000     4.386000000     4.717000000
H    -1.124000000     5.562000000     5.670000000
