158
-3029.40382
C     0.419000000    -0.727000000    -1.224000000
H     0.704000000    -1.270000000    -2.121000000
C    -0.130000000     0.540000000    -1.240000000
H    -0.342000000     1.062000000    -2.170000000
C    -0.484000000     1.144000000     0.000000000
H    -0.905000000     2.141000000    -0.084000000
C    -0.070000000     0.515000000     1.222000000
H    -0.471000000     1.055000000     2.076000000
C     0.444000000    -0.734000000     1.230000000
H     0.561000000    -1.144000000     2.230000000
C     0.682000000    -1.392000000    -0.015000000
C     1.381000000    -2.783000000    -0.037000000
O     1.289000000    -3.525000000    -0.995000000
O     1.731000000    -3.277000000     1.002000000
O     1.633000000     6.527000000    -2.329000000
H     0.934000000     6.743000000    -2.946000000
H     1.307000000     6.829000000    -1.482000000
O     3.287000000     1.214000000     6.319000000
H     3.419000000     0.517000000     5.676000000
H     3.155000000     0.754000000     7.148000000
O     0.603000000    -3.842000000     4.414000000
H     1.503000000    -3.868000000     4.088000000
H     0.612000000    -4.406000000     5.187000000
O    -2.542000000     0.137000000     4.465000000
H    -1.737000000    -0.325000000     4.703000000
H    -3.068000000    -0.519000000     4.008000000
O     0.351000000    -6.196000000    -0.608000000
H    -0.023000000    -5.976000000     0.246000000
H     1.030000000    -5.536000000    -0.749000000
O     5.053000000    -3.909000000     2.827000000
H     5.335000000    -4.823000000     2.845000000
H     5.841000000    -3.411000000     3.046000000
O     6.802000000    -1.878000000     1.019000000
H     7.100000000    -0.969000000     1.005000000
H     5.848000000    -1.819000000     0.966000000
O     3.550000000     4.248000000    -4.207000000
H     2.878000000     3.788000000    -3.705000000
H     3.889000000     4.910000000    -3.604000000
O     1.787000000    -0.185000000     4.093000000
H     1.901000000     0.711000000     3.775000000
H     2.240000000    -0.727000000     3.447000000
O    -3.373000000     2.474000000    -4.249000000
H    -3.618000000     1.556000000    -4.133000000
H    -4.105000000     2.966000000    -3.878000000
O    -7.437000000     3.999000000     1.649000000
H    -8.038000000     4.018000000     0.904000000
H    -6.690000000     3.485000000     1.342000000
O    -0.872000000    -1.832000000    -4.823000000
H    -0.672000000    -2.596000000    -4.281000000
H    -1.639000000    -1.438000000    -4.407000000
O    -0.321000000    -4.784000000     1.839000000
H    -0.399000000    -4.517000000     2.755000000
H     0.422000000    -4.281000000     1.506000000
O     3.728000000     1.886000000     1.364000000
H     3.125000000     2.562000000     1.673000000
H     4.570000000     2.335000000     1.287000000
O    -1.703000000     3.514000000     6.111000000
H    -2.193000000     3.322000000     6.910000000
H    -1.793000000     2.723000000     5.579000000
O     1.392000000    -0.358000000    -5.203000000
H     0.707000000    -0.973000000    -4.940000000
H     0.916000000     0.418000000    -5.498000000
O    -2.776000000     3.743000000     0.451000000
H    -3.704000000     3.794000000     0.679000000
H    -2.593000000     2.805000000     0.400000000
O    -1.362000000     4.693000000    -2.925000000
H    -1.666000000     5.061000000    -2.096000000
H    -2.088000000     4.147000000    -3.226000000
O     3.949000000    -1.092000000     0.704000000
H     3.226000000    -1.683000000     0.917000000
H     3.665000000    -0.239000000     1.033000000
O     3.159000000     1.200000000    -1.415000000
H     2.779000000     1.040000000    -0.551000000
H     2.910000000     2.101000000    -1.623000000
O    -2.771000000    -3.971000000    -4.167000000
H    -1.970000000    -4.310000000    -3.769000000
H    -2.823000000    -3.064000000    -3.867000000
O    -0.458000000     6.921000000    -4.032000000
H    -1.095000000     7.607000000    -3.832000000
H    -0.834000000     6.126000000    -3.655000000
O     2.641000000    -5.800000000     1.552000000
H     3.486000000    -5.756000000     2.001000000
H     2.549000000    -4.944000000     1.132000000
O    -3.063000000    -1.244000000    -3.317000000
H    -3.154000000    -0.977000000    -2.403000000
H    -3.826000000    -0.866000000    -3.755000000
O    -4.804000000     5.364000000     3.664000000
H    -5.137000000     4.467000000     3.628000000
H    -4.427000000     5.514000000     2.797000000
O    -0.292000000    -4.193000000    -3.011000000
H     0.269000000    -3.980000000    -2.266000000
H    -0.403000000    -5.143000000    -2.963000000
O     3.042000000    -2.366000000     3.194000000
H     2.432000000    -2.706000000     2.538000000
H     3.850000000    -2.857000000     3.045000000
O     3.976000000    -0.043000000    -3.939000000
H     3.091000000    -0.251000000    -4.237000000
H     3.855000000     0.321000000    -3.063000000
O     4.781000000    -4.311000000    -0.395000000
H     5.365000000    -3.731000000     0.093000000
H     3.934000000    -3.864000000    -0.382000000
O    -1.440000000     5.923000000    -0.527000000
H    -2.153000000     6.519000000    -0.299000000
H    -1.741000000     5.064000000    -0.230000000
O     1.951000000     3.283000000     3.014000000
H     1.203000000     3.603000000     2.510000000
H     1.593000000     3.098000000     3.882000000
O    -3.965000000    -2.433000000     3.679000000
H    -3.253000000    -3.069000000     3.609000000
H    -4.149000000    -2.382000000     4.617000000
O    -2.852000000    -1.478000000    -0.473000000
H    -1.986000000    -1.163000000    -0.731000000
H    -2.678000000    -2.126000000     0.210000000
O    -0.676000000     4.584000000     2.557000000
H    -1.386000000     4.388000000     1.945000000
H    -1.088000000     4.554000000     3.420000000
O    -5.656000000     2.601000000     0.129000000
H    -6.167000000     2.619000000    -0.680000000
H    -5.321000000     1.707000000     0.182000000
O     2.621000000    -4.327000000    -3.159000000
H     2.277000000    -3.888000000    -2.381000000
H     1.909000000    -4.277000000    -3.796000000
O     5.403000000    -6.856000000    -1.004000000
H     5.325000000    -5.903000000    -1.064000000
H     4.530000000    -7.152000000    -0.748000000
O    -0.431000000    -1.365000000     5.171000000
H     0.275000000    -0.825000000     4.817000000
H    -0.106000000    -2.262000000     5.098000000
O    -4.069000000     2.628000000     3.299000000
H    -4.505000000     2.169000000     2.582000000
H    -3.382000000     2.026000000     3.587000000
O     1.016000000     2.873000000     5.336000000
H     1.498000000     2.463000000     6.055000000
H     0.275000000     3.306000000     5.761000000
O     1.080000000     6.090000000     0.518000000
H     0.254000000     6.168000000     0.041000000
H     0.840000000     5.670000000     1.345000000
O     0.514000000    -7.404000000     2.628000000
H     1.175000000    -6.723000000     2.504000000
H     1.018000000    -8.213000000     2.719000000
O     5.797000000    -3.934000000    -3.607000000
H     6.586000000    -4.032000000    -3.074000000
H     5.075000000    -4.063000000    -2.991000000
O    -5.078000000     0.137000000    -0.341000000
H    -5.736000000    -0.377000000    -0.809000000
H    -4.264000000    -0.355000000    -0.457000000
O     1.835000000    -6.353000000    -5.246000000
H     2.456000000    -6.552000000    -4.546000000
H     1.708000000    -7.187000000    -5.698000000
O     1.549000000     3.701000000    -2.295000000
H     1.628000000     4.635000000    -2.099000000
H     0.666000000     3.604000000    -2.650000000
O    -2.783000000    -4.008000000     0.490000000
H    -3.226000000    -4.200000000     1.316000000
H    -1.909000000    -4.385000000     0.594000000
O    -5.187000000     0.026000000     2.517000000
H    -5.450000000    -0.246000000     1.638000000
H    -4.560000000    -0.640000000     2.797000000
