158
-3047.16384
C     1.180000000    -0.687000000    -0.598000000
H     1.951000000    -1.127000000    -1.225000000
C     0.846000000     0.622000000    -0.836000000
H     1.420000000     1.155000000    -1.590000000
C    -0.195000000     1.236000000    -0.079000000
H    -0.498000000     2.266000000    -0.202000000
C    -0.972000000     0.459000000     0.802000000
H    -1.874000000     0.886000000     1.233000000
C    -0.691000000    -0.855000000     0.946000000
H    -1.301000000    -1.382000000     1.676000000
C     0.411000000    -1.483000000     0.294000000
C     0.746000000    -2.927000000     0.583000000
O     1.586000000    -3.438000000    -0.049000000
O    -0.068000000    -3.649000000     1.113000000
O     0.078000000    -3.102000000     5.265000000
H     0.211000000    -3.685000000     6.012000000
H     0.959000000    -2.939000000     4.928000000
O    -2.588000000    -2.749000000     4.604000000
H    -1.734000000    -2.875000000     5.017000000
H    -2.550000000    -3.282000000     3.809000000
O    -1.789000000    -4.795000000     2.592000000
H    -1.598000000    -5.719000000     2.750000000
H    -1.114000000    -4.511000000     1.977000000
O     3.029000000    -6.839000000    -1.921000000
H     3.761000000    -6.244000000    -2.080000000
H     2.454000000    -6.359000000    -1.325000000
O     2.675000000    -2.535000000     4.389000000
H     3.194000000    -3.261000000     4.735000000
H     2.884000000    -2.515000000     3.455000000
O     4.972000000     0.305000000    -1.031000000
H     5.121000000     1.240000000    -1.170000000
H     5.394000000     0.117000000    -0.193000000
O    -6.168000000    -1.071000000    -1.519000000
H    -5.282000000    -0.988000000    -1.167000000
H    -6.598000000    -1.701000000    -0.941000000
O    -0.035000000     1.121000000     4.122000000
H    -0.803000000     0.668000000     3.775000000
H    -0.076000000     0.972000000     5.067000000
O     5.879000000     0.426000000    -3.918000000
H     6.245000000     1.311000000    -3.909000000
H     5.958000000     0.125000000    -3.013000000
O    -5.506000000     2.071000000    -1.575000000
H    -5.877000000     1.425000000    -0.975000000
H    -4.690000000     1.674000000    -1.880000000
O    -5.345000000     1.051000000     4.219000000
H    -4.559000000     0.901000000     3.693000000
H    -6.025000000     1.260000000     3.579000000
O    -1.063000000    -0.335000000    -4.348000000
H    -1.104000000    -1.007000000    -3.667000000
H    -1.872000000    -0.450000000    -4.846000000
O    -0.492000000    -7.334000000     2.424000000
H    -0.985000000    -7.862000000     1.797000000
H    -0.043000000    -7.974000000     2.976000000
O     2.290000000     0.960000000     2.121000000
H     2.530000000     0.148000000     1.674000000
H     1.421000000     0.786000000     2.484000000
O    -1.759000000     4.378000000    -1.501000000
H    -1.921000000     5.012000000    -2.199000000
H    -2.102000000     3.552000000    -1.843000000
O     3.674000000    -3.818000000    -4.800000000
H     3.138000000    -3.762000000    -5.591000000
H     3.057000000    -3.679000000    -4.082000000
O     4.051000000    -4.124000000     0.495000000
H     3.159000000    -3.790000000     0.398000000
H     3.938000000    -5.016000000     0.824000000
O     3.727000000    -1.638000000     1.964000000
H     3.916000000    -2.507000000     1.609000000
H     4.530000000    -1.139000000     1.815000000
O     0.594000000     5.099000000    -0.103000000
H     0.330000000     5.400000000     0.766000000
H    -0.208000000     4.750000000    -0.490000000
O    -1.104000000    -5.944000000     5.342000000
H    -0.415000000    -5.857000000     4.683000000
H    -0.770000000    -5.467000000     6.102000000
O    -2.636000000    -3.572000000    -0.415000000
H    -3.211000000    -3.460000000     0.342000000
H    -1.772000000    -3.735000000    -0.038000000
O     2.621000000     5.858000000    -4.054000000
H     1.989000000     6.248000000    -3.449000000
H     3.405000000     5.717000000    -3.523000000
O     6.221000000    -3.824000000    -1.044000000
H     5.633000000    -4.045000000    -0.322000000
H     5.784000000    -3.103000000    -1.497000000
O    -2.537000000     4.737000000     1.113000000
H    -1.868000000     4.696000000     1.796000000
H    -2.055000000     4.601000000     0.297000000
O     1.119000000    -0.119000000    -6.271000000
H     1.780000000     0.232000000    -5.674000000
H     0.321000000    -0.166000000    -5.744000000
O     1.215000000    -5.385000000     3.310000000
H     0.831000000    -6.066000000     2.757000000
H     0.980000000    -4.564000000     2.877000000
O    -6.068000000     4.432000000     0.120000000
H    -6.870000000     4.310000000     0.628000000
H    -5.686000000     3.556000000     0.062000000
O     2.610000000     3.078000000     0.202000000
H     2.509000000     2.469000000     0.934000000
H     1.878000000     3.686000000     0.293000000
O     3.156000000     2.955000000    -2.299000000
H     4.078000000     2.714000000    -2.218000000
H     2.839000000     2.997000000    -1.396000000
O     2.994000000     0.823000000    -4.529000000
H     2.887000000     1.468000000    -3.829000000
H     3.893000000     0.511000000    -4.432000000
O     4.572000000    -2.121000000    -2.487000000
H     3.656000000    -2.389000000    -2.566000000
H     4.539000000    -1.292000000    -2.011000000
O     3.443000000     6.665000000     0.992000000
H     2.509000000     6.494000000     0.873000000
H     3.596000000     6.524000000     1.927000000
O    -7.051000000     0.522000000     1.830000000
H    -6.113000000     0.334000000     1.867000000
H    -7.466000000    -0.338000000     1.760000000
O    -1.481000000    -2.376000000    -2.740000000
H    -1.442000000    -2.982000000    -2.000000000
H    -2.059000000    -2.805000000    -3.371000000
O    -0.087000000     5.130000000     2.609000000
H     0.235000000     5.979000000     2.911000000
H     0.108000000     4.530000000     3.329000000
O    -3.448000000    -0.650000000    -0.885000000
H    -2.845000000    -1.391000000    -0.949000000
H    -3.101000000    -0.006000000    -1.503000000
O     2.060000000    -3.409000000    -2.660000000
H     1.937000000    -3.540000000    -1.719000000
H     1.181000000    -3.231000000    -2.994000000
O    -1.194000000    -7.036000000    -0.907000000
H    -1.215000000    -7.797000000    -1.487000000
H    -2.111000000    -6.779000000    -0.816000000
O    -2.678000000     1.366000000    -2.490000000
H    -2.857000000     1.466000000    -3.425000000
H    -1.723000000     1.388000000    -2.425000000
O     0.512000000     3.755000000     4.743000000
H     0.167000000     2.875000000     4.596000000
H     1.463000000     3.644000000     4.738000000
O     3.572000000    -6.967000000     1.487000000
H     2.758000000    -6.846000000     0.998000000
H     3.289000000    -7.262000000     2.353000000
O     1.179000000     6.911000000    -2.092000000
H     1.174000000     6.127000000    -1.543000000
H     0.549000000     7.499000000    -1.676000000
O     1.333000000    -6.239000000     0.259000000
H     1.148000000    -5.300000000     0.248000000
H     0.472000000    -6.651000000     0.334000000
O    -4.416000000    -0.572000000     1.705000000
H    -4.458000000    -1.515000000     1.865000000
H    -3.954000000    -0.491000000     0.871000000
O    -4.154000000    -3.363000000     1.966000000
H    -4.931000000    -3.668000000     2.434000000
H    -3.511000000    -4.062000000     2.089000000
O    -2.600000000    -0.083000000     3.331000000
H    -3.144000000    -0.387000000     2.604000000
H    -2.484000000    -0.857000000     3.883000000
O    -0.078000000     2.228000000    -3.615000000
H    -0.324000000     1.402000000    -4.031000000
H     0.842000000     2.113000000    -3.379000000
O     0.264000000     4.690000000    -4.900000000
H     1.203000000     4.859000000    -4.820000000
H     0.088000000     4.007000000    -4.254000000
