158
-3027.12800
C     1.279000000    -0.319000000    -0.557000000
H     2.274000000    -0.446000000    -0.975000000
C     0.730000000     0.957000000    -0.419000000
H     1.339000000     1.826000000    -0.652000000
C    -0.512000000     1.120000000     0.164000000
H    -0.982000000     2.066000000     0.374000000
C    -1.239000000    -0.058000000     0.473000000
H    -2.240000000     0.127000000     0.856000000
C    -0.704000000    -1.339000000     0.234000000
H    -1.264000000    -2.214000000     0.556000000
C     0.604000000    -1.432000000    -0.221000000
C     1.225000000    -2.782000000    -0.418000000
O     2.401000000    -2.952000000    -0.693000000
O     0.564000000    -3.781000000    -0.267000000
O     0.921000000     7.504000000    -1.112000000
H     0.900000000     6.549000000    -1.061000000
H     0.619000000     7.704000000    -1.998000000
O    -0.978000000    -1.879000000     3.871000000
H    -0.522000000    -1.631000000     4.675000000
H    -0.457000000    -2.597000000     3.512000000
O    -2.932000000    -0.180000000     4.318000000
H    -2.115000000    -0.450000000     3.898000000
H    -3.104000000    -0.862000000     4.967000000
O    -0.868000000    -5.917000000     0.461000000
H    -0.411000000    -6.119000000     1.277000000
H    -0.351000000    -5.217000000     0.063000000
O     2.855000000    -5.336000000    -4.609000000
H     3.499000000    -5.042000000    -3.965000000
H     3.005000000    -6.279000000    -4.685000000
O     3.694000000    -4.308000000     3.070000000
H     4.128000000    -5.040000000     2.633000000
H     3.874000000    -3.553000000     2.509000000
O     4.442000000     0.587000000    -1.315000000
H     4.021000000     1.421000000    -1.107000000
H     4.486000000     0.125000000    -0.477000000
O     1.451000000     0.478000000     3.053000000
H     0.800000000     0.338000000     2.366000000
H     0.966000000     0.905000000     3.760000000
O     0.777000000    -7.339000000     2.214000000
H     1.207000000    -8.194000000     2.223000000
H    -0.014000000    -7.463000000     2.738000000
O     3.473000000     1.984000000     2.089000000
H     4.208000000     1.782000000     2.669000000
H     2.749000000     1.456000000     2.428000000
O    -0.024000000     6.114000000     4.923000000
H    -0.194000000     5.610000000     5.719000000
H    -0.893000000     6.312000000     4.575000000
O    -0.472000000     3.821000000    -2.766000000
H    -1.306000000     4.199000000    -2.487000000
H    -0.525000000     3.801000000    -3.722000000
O     6.778000000    -3.630000000     1.798000000
H     5.882000000    -3.344000000     1.616000000
H     6.682000000    -4.304000000     2.471000000
O     4.372000000    -2.581000000     1.039000000
H     3.822000000    -2.601000000     0.256000000
H     4.675000000    -1.675000000     1.095000000
O     1.526000000     4.619000000    -0.851000000
H     1.028000000     4.755000000    -0.045000000
H     0.913000000     4.178000000    -1.439000000
O    -1.996000000    -6.531000000     4.011000000
H    -1.871000000    -5.608000000     3.788000000
H    -2.306000000    -6.519000000     4.916000000
O    -0.473000000    -4.579000000    -2.991000000
H     0.186000000    -4.503000000    -2.300000000
H     0.001000000    -4.376000000    -3.797000000
O     6.054000000    -0.005000000     1.316000000
H     6.612000000    -0.690000000     0.947000000
H     6.657000000     0.708000000     1.527000000
O    -3.818000000     3.375000000     0.880000000
H    -4.100000000     2.464000000     0.967000000
H    -3.618000000     3.475000000    -0.051000000
O     0.739000000    -3.865000000     2.615000000
H     0.729000000    -3.641000000     1.684000000
H     1.616000000    -4.217000000     2.768000000
O     3.147000000     4.458000000    -3.329000000
H     2.580000000     4.040000000    -2.680000000
H     3.598000000     5.148000000    -2.843000000
O     3.782000000     3.032000000    -0.267000000
H     3.679000000     2.642000000     0.602000000
H     3.055000000     3.650000000    -0.340000000
O     6.308000000    -0.087000000    -3.525000000
H     6.116000000     0.712000000    -4.016000000
H     5.729000000    -0.045000000    -2.764000000
O     2.997000000    -1.041000000    -5.198000000
H     3.627000000    -0.342000000    -5.373000000
H     3.234000000    -1.735000000    -5.814000000
O    -3.818000000     2.468000000     4.659000000
H    -3.513000000     3.253000000     4.204000000
H    -3.422000000     1.742000000     4.177000000
O     6.783000000    -2.688000000    -2.706000000
H     7.166000000    -1.891000000    -3.072000000
H     5.878000000    -2.684000000    -3.019000000
O    -3.087000000     4.494000000     3.237000000
H    -3.162000000     5.417000000     2.992000000
H    -3.603000000     4.029000000     2.579000000
O    -5.890000000     5.154000000     1.330000000
H    -5.150000000     4.600000000     1.083000000
H    -5.728000000     5.984000000     0.881000000
O     0.874000000     3.841000000     2.187000000
H     1.173000000     3.072000000     2.672000000
H     1.367000000     4.569000000     2.564000000
O    -6.192000000     1.283000000     0.787000000
H    -5.562000000     0.580000000     0.630000000
H    -6.125000000     1.842000000     0.013000000
O    -2.931000000    -3.878000000     4.115000000
H    -2.997000000    -4.317000000     3.267000000
H    -2.325000000    -3.153000000     3.963000000
O     6.641000000     3.085000000    -1.460000000
H     6.708000000     3.250000000    -0.520000000
H     5.928000000     2.451000000    -1.542000000
O    -3.130000000    -3.649000000    -2.010000000
H    -2.193000000    -3.816000000    -2.110000000
H    -3.553000000    -4.398000000    -2.431000000
O    -1.059000000     5.238000000     0.498000000
H    -0.825000000     4.754000000     1.291000000
H    -1.725000000     5.862000000     0.786000000
O    -6.505000000    -2.924000000     2.009000000
H    -5.712000000    -2.790000000     1.490000000
H    -6.286000000    -2.578000000     2.874000000
O    -2.703000000    -1.215000000    -2.585000000
H    -2.991000000    -2.112000000    -2.417000000
H    -2.004000000    -1.064000000    -1.949000000
O     3.926000000    -2.867000000    -3.085000000
H     3.212000000    -2.788000000    -2.453000000
H     3.750000000    -2.183000000    -3.732000000
O    -2.021000000    -7.505000000    -1.437000000
H    -1.836000000    -6.884000000    -0.732000000
H    -2.830000000    -7.940000000    -1.168000000
O    -0.102000000     1.716000000     4.752000000
H    -0.388000000     2.577000000     4.447000000
H    -0.320000000     1.707000000     5.684000000
O    -3.084000000     6.866000000     1.306000000
H    -2.580000000     7.669000000     1.443000000
H    -3.992000000     7.161000000     1.243000000
O    -4.705000000     2.685000000    -1.944000000
H    -4.113000000     3.323000000    -2.341000000
H    -5.417000000     2.593000000    -2.576000000
O    -5.541000000    -0.281000000    -1.531000000
H    -5.101000000    -1.107000000    -1.331000000
H    -4.913000000     0.202000000    -2.067000000
O     4.889000000     5.259000000    -0.951000000
H     4.564000000     4.409000000    -0.657000000
H     5.840000000     5.153000000    -0.985000000
O    -2.618000000     5.451000000    -1.980000000
H    -3.445000000     5.933000000    -1.988000000
H    -2.180000000     5.741000000    -1.180000000
O     2.645000000    -5.659000000    -1.147000000
H     2.152000000    -4.847000000    -1.032000000
H     3.415000000    -5.553000000    -0.588000000
O    -4.186000000    -2.875000000     0.574000000
H    -3.805000000    -3.623000000     1.035000000
H    -3.775000000    -2.891000000    -0.290000000
O    -3.156000000    -5.340000000     1.440000000
H    -3.805000000    -5.933000000     1.062000000
H    -2.316000000    -5.665000000     1.116000000
O    -4.462000000    -0.375000000     1.816000000
H    -4.389000000    -1.249000000     1.431000000
H    -4.216000000    -0.496000000     2.733000000
