158
-3040.45424
C     1.131000000    -0.665000000    -0.597000000
H     1.781000000    -1.252000000    -1.241000000
C     0.510000000     0.542000000    -1.021000000
H     0.741000000     1.002000000    -1.979000000
C    -0.571000000     1.017000000    -0.338000000
H    -1.114000000     1.845000000    -0.810000000
C    -0.946000000     0.421000000     0.855000000
H    -1.763000000     0.817000000     1.452000000
C    -0.371000000    -0.741000000     1.324000000
H    -0.744000000    -1.207000000     2.233000000
C     0.704000000    -1.303000000     0.612000000
C     1.366000000    -2.565000000     1.049000000
O     2.219000000    -3.077000000     0.335000000
O     1.244000000    -2.921000000     2.159000000
O     0.347000000    -3.604000000     5.547000000
H     0.152000000    -4.444000000     5.961000000
H     1.022000000    -3.214000000     6.104000000
O    -3.408000000    -0.773000000     3.870000000
H    -2.700000000    -0.947000000     4.491000000
H    -3.309000000    -1.450000000     3.200000000
O    -0.299000000    -5.879000000     0.624000000
H    -0.318000000    -5.290000000     1.378000000
H     0.189000000    -6.644000000     0.929000000
O     6.428000000    -3.005000000     1.913000000
H     6.498000000    -3.309000000     2.818000000
H     5.797000000    -3.601000000     1.509000000
O    -2.261000000     6.412000000     0.076000000
H    -2.340000000     7.304000000     0.414000000
H    -1.723000000     5.958000000     0.724000000
O    -4.921000000     1.737000000    -2.119000000
H    -5.404000000     1.508000000    -1.325000000
H    -4.595000000     0.901000000    -2.451000000
O     4.340000000     3.544000000    -4.394000000
H     3.755000000     3.213000000    -3.713000000
H     4.668000000     4.373000000    -4.047000000
O     0.720000000     0.992000000     4.204000000
H     0.872000000     0.918000000     3.262000000
H    -0.007000000     1.609000000     4.282000000
O    -2.501000000     1.501000000    -3.608000000
H    -2.833000000     0.608000000    -3.691000000
H    -3.137000000     1.942000000    -3.044000000
O     0.418000000    -3.673000000    -3.889000000
H     0.688000000    -4.485000000    -4.316000000
H     0.084000000    -3.950000000    -3.035000000
O    -0.773000000    -3.991000000     2.917000000
H    -0.804000000    -4.024000000     3.873000000
H     0.001000000    -3.463000000     2.720000000
O     4.091000000     0.386000000     0.969000000
H     3.410000000     0.894000000     1.410000000
H     4.909000000     0.687000000     1.365000000
O     0.929000000    -0.828000000    -4.188000000
H     0.863000000    -1.782000000    -4.146000000
H     0.058000000    -0.517000000    -3.940000000
O    -1.336000000     2.874000000     4.148000000
H    -1.633000000     3.751000000     4.391000000
H    -2.133000000     2.419000000     3.874000000
O    -1.026000000     3.720000000    -2.878000000
H    -1.576000000     4.034000000    -2.160000000
H    -1.447000000     2.911000000    -3.167000000
O     4.393000000    -1.650000000    -0.755000000
H     3.571000000    -2.139000000    -0.733000000
H     4.318000000    -1.022000000    -0.036000000
O     2.623000000    -2.024000000     6.700000000
H     3.180000000    -2.683000000     7.114000000
H     2.791000000    -2.122000000     5.763000000
O     3.934000000     1.520000000    -1.941000000
H     3.955000000     1.075000000    -1.094000000
H     3.186000000     2.114000000    -1.882000000
O     0.275000000     5.946000000    -3.574000000
H    -0.469000000     6.419000000    -3.200000000
H    -0.022000000     5.038000000    -3.627000000
O    -1.919000000     7.742000000    -2.561000000
H    -2.145000000     7.165000000    -1.832000000
H    -2.608000000     7.592000000    -3.208000000
O     2.049000000    -5.739000000     2.733000000
H     2.758000000    -5.927000000     3.348000000
H     1.838000000    -4.818000000     2.885000000
O     5.873000000    -6.871000000     0.570000000
H     6.500000000    -6.798000000     1.290000000
H     5.208000000    -6.211000000     0.764000000
O    -2.950000000    -1.049000000    -3.878000000
H    -2.577000000    -1.402000000    -3.070000000
H    -3.729000000    -1.582000000    -4.035000000
O    -3.572000000     1.858000000     3.192000000
H    -3.722000000     0.955000000     3.474000000
H    -3.691000000     1.835000000     2.242000000
O    -2.210000000    -5.142000000    -1.328000000
H    -2.440000000    -4.231000000    -1.509000000
H    -1.812000000    -5.120000000    -0.458000000
O     3.033000000    -2.168000000     3.843000000
H     2.358000000    -2.547000000     3.279000000
H     3.743000000    -1.936000000     3.244000000
O    -5.976000000     4.109000000    -3.601000000
H    -6.603000000     4.353000000    -2.921000000
H    -5.674000000     3.237000000    -3.346000000
O    -5.188000000     5.186000000    -0.624000000
H    -4.907000000     5.978000000    -1.082000000
H    -6.129000000     5.134000000    -0.789000000
O     3.332000000     0.315000000    -4.390000000
H     2.565000000    -0.195000000    -4.130000000
H     3.531000000     0.854000000    -3.626000000
O     6.107000000    -1.109000000    -2.501000000
H     5.369000000    -1.398000000    -1.965000000
H     5.988000000    -0.163000000    -2.583000000
O     4.087000000    -4.796000000     1.211000000
H     3.578000000    -5.140000000     1.945000000
H     3.466000000    -4.255000000     0.722000000
O    -3.098000000     3.408000000    -1.001000000
H    -3.551000000     4.250000000    -0.944000000
H    -3.799000000     2.766000000    -1.114000000
O     1.842000000     2.514000000     1.122000000
H     1.040000000     2.071000000     0.845000000
H     1.900000000     3.282000000     0.554000000
O    -4.693000000    -4.024000000     4.372000000
H    -4.270000000    -4.804000000     4.732000000
H    -4.177000000    -3.810000000     3.595000000
O    -1.477000000    -2.192000000    -1.862000000
H    -1.218000000    -3.092000000    -1.664000000
H    -1.005000000    -1.660000000    -1.221000000
O    -0.925000000     4.221000000     0.912000000
H    -1.770000000     4.068000000     0.489000000
H    -0.917000000     3.621000000     1.657000000
O    -4.342000000     0.438000000     0.865000000
H    -3.884000000    -0.366000000     1.112000000
H    -5.155000000     0.136000000     0.462000000
O     0.340000000    -4.390000000    -1.300000000
H     1.149000000    -4.037000000    -0.929000000
H     0.013000000    -4.992000000    -0.631000000
O    -0.904000000    -1.189000000     5.234000000
H    -0.135000000    -0.704000000     4.934000000
H    -0.571000000    -2.064000000     5.434000000
O    -6.283000000    -0.974000000     3.886000000
H    -5.421000000    -0.822000000     3.498000000
H    -6.133000000    -1.652000000     4.544000000
O    -1.615000000     2.961000000    -6.182000000
H    -1.812000000     2.535000000    -5.348000000
H    -1.662000000     2.256000000    -6.829000000
O     1.505000000     5.108000000    -0.054000000
H     1.566000000     6.062000000    -0.005000000
H     0.674000000     4.899000000     0.374000000
O     0.843000000    -8.171000000     2.164000000
H     1.218000000    -7.392000000     2.575000000
H     1.490000000    -8.859000000     2.321000000
O     3.739000000    -4.822000000    -3.883000000
H     3.386000000    -4.042000000    -3.455000000
H     3.952000000    -5.415000000    -3.162000000
O    -4.575000000    -1.123000000    -1.500000000
H    -5.523000000    -1.217000000    -1.598000000
H    -4.423000000    -1.208000000    -0.559000000
O     2.116000000     3.478000000    -2.087000000
H     1.749000000     4.151000000    -1.514000000
H     1.397000000     3.247000000    -2.676000000
O    -3.117000000    -4.526000000     1.942000000
H    -3.281000000    -5.445000000     2.155000000
H    -2.208000000    -4.379000000     2.206000000
O    -4.259000000    -2.239000000     1.225000000
H    -5.124000000    -2.523000000     1.519000000
H    -3.738000000    -3.042000000     1.201000000
