158
-3040.24641
C     0.811000000     1.115000000     0.640000000
H     1.568000000     1.801000000     1.011000000
C     1.074000000    -0.294000000     0.672000000
H     1.930000000    -0.700000000     1.205000000
C     0.224000000    -1.201000000     0.125000000
H     0.367000000    -2.276000000     0.341000000
C    -0.936000000    -0.716000000    -0.491000000
H    -1.626000000    -1.419000000    -0.951000000
C    -1.188000000     0.617000000    -0.626000000
H    -1.987000000     0.995000000    -1.258000000
C    -0.283000000     1.574000000    -0.059000000
C    -0.549000000     3.012000000    -0.233000000
O    -1.364000000     3.460000000    -1.025000000
O     0.065000000     3.834000000     0.382000000
O    -3.662000000    -7.214000000    -1.577000000
H    -4.210000000    -7.025000000    -2.339000000
H    -3.040000000    -6.488000000    -1.543000000
O    -2.583000000     4.013000000    -3.324000000
H    -2.122000000     3.873000000    -2.497000000
H    -2.413000000     4.930000000    -3.540000000
O     0.487000000     3.736000000     2.978000000
H     0.465000000     3.856000000     2.029000000
H    -0.095000000     4.416000000     3.319000000
O     1.231000000    -5.109000000     1.341000000
H     0.902000000    -5.361000000     2.204000000
H     0.506000000    -5.297000000     0.744000000
O    -2.973000000     3.817000000     2.779000000
H    -2.546000000     4.443000000     2.194000000
H    -3.432000000     4.361000000     3.419000000
O     2.520000000    -2.446000000     4.810000000
H     1.889000000    -1.750000000     4.993000000
H     2.348000000    -3.108000000     5.480000000
O     2.900000000    -7.094000000    -1.462000000
H     3.148000000    -6.624000000    -2.258000000
H     1.999000000    -7.375000000    -1.621000000
O     0.134000000     5.702000000    -1.490000000
H     0.116000000     5.067000000    -0.774000000
H     0.790000000     5.360000000    -2.097000000
O    -4.013000000    -0.430000000    -3.428000000
H    -4.426000000     0.402000000    -3.199000000
H    -3.304000000    -0.190000000    -4.025000000
O     2.264000000    -0.022000000     6.245000000
H     2.281000000     0.594000000     5.513000000
H     1.919000000     0.486000000     6.979000000
O     2.355000000     2.040000000     4.544000000
H     3.008000000     2.719000000     4.715000000
H     1.686000000     2.478000000     4.017000000
O    -6.938000000     1.300000000     0.496000000
H    -7.427000000     1.932000000    -0.031000000
H    -6.031000000     1.603000000     0.452000000
O    -1.999000000    -3.528000000     4.508000000
H    -2.111000000    -3.937000000     3.650000000
H    -1.318000000    -2.869000000     4.372000000
O    -1.711000000    -1.422000000    -5.307000000
H    -1.744000000    -0.471000000    -5.205000000
H    -1.049000000    -1.708000000    -4.677000000
O    -3.397000000     4.890000000    -0.318000000
H    -2.944000000     4.167000000    -0.753000000
H    -2.695000000     5.478000000    -0.039000000
O    -3.685000000    -3.198000000    -3.323000000
H    -4.500000000    -3.574000000    -3.655000000
H    -3.876000000    -2.266000000    -3.220000000
O    -1.592000000     1.539000000     3.538000000
H    -2.439000000     1.878000000     3.246000000
H    -1.011000000     2.299000000     3.518000000
O     4.663000000     2.706000000    -0.232000000
H     4.404000000     2.467000000    -1.122000000
H     4.070000000     3.418000000     0.007000000
O    -2.145000000    -4.841000000     2.364000000
H    -1.688000000    -5.533000000     1.886000000
H    -2.865000000    -4.587000000     1.786000000
O     6.775000000    -1.122000000     2.629000000
H     6.153000000    -1.570000000     3.201000000
H     6.235000000    -0.533000000     2.103000000
O     3.594000000    -3.927000000    -0.825000000
H     3.394000000    -4.417000000    -1.623000000
H     3.440000000    -4.551000000    -0.116000000
O    -2.060000000     1.106000000    -4.699000000
H    -2.722000000     1.588000000    -5.195000000
H    -1.325000000     1.715000000    -4.626000000
O    -3.872000000     3.379000000    -5.723000000
H    -4.441000000     4.133000000    -5.875000000
H    -3.501000000     3.530000000    -4.854000000
O     6.311000000    -4.524000000    -1.641000000
H     5.365000000    -4.417000000    -1.537000000
H     6.403000000    -5.262000000    -2.243000000
O    -0.006000000     8.322000000    -1.100000000
H    -0.430000000     8.242000000    -0.246000000
H     0.086000000     7.420000000    -1.407000000
O    -3.888000000    -4.211000000     0.258000000
H    -4.680000000    -4.378000000    -0.254000000
H    -3.984000000    -3.308000000     0.559000000
O    -4.700000000     2.064000000    -2.385000000
H    -5.317000000     2.675000000    -1.981000000
H    -4.032000000     2.624000000    -2.779000000
O    -4.801000000     6.668000000     1.313000000
H    -4.228000000     7.223000000     0.785000000
H    -4.584000000     5.775000000     1.045000000
O    -1.424000000     5.876000000     1.592000000
H    -0.853000000     5.314000000     1.068000000
H    -0.843000000     6.557000000     1.932000000
O     0.743000000    -5.236000000    -4.874000000
H     0.342000000    -5.378000000    -5.731000000
H     0.212000000    -4.547000000    -4.473000000
O    -2.154000000    -5.027000000    -1.736000000
H    -2.385000000    -4.408000000    -2.429000000
H    -2.500000000    -4.631000000    -0.936000000
O     4.880000000     0.449000000     1.109000000
H     4.975000000     1.321000000     0.726000000
H     4.623000000    -0.108000000     0.374000000
O     4.746000000     1.055000000     3.848000000
H     4.797000000     0.932000000     2.900000000
H     3.831000000     1.283000000     4.012000000
O    -1.059000000    -1.254000000     3.256000000
H    -1.640000000    -0.508000000     3.406000000
H    -0.491000000    -0.975000000     2.538000000
O    -1.103000000    -6.507000000     0.422000000
H    -1.077000000    -7.458000000     0.316000000
H    -1.505000000    -6.186000000    -0.385000000
O    -5.508000000     5.868000000    -2.042000000
H    -5.025000000     5.496000000    -1.304000000
H    -4.907000000     6.507000000    -2.425000000
O     1.134000000     6.310000000     3.016000000
H     1.467000000     7.166000000     2.747000000
H     0.786000000     6.454000000     3.896000000
O    -4.234000000    -1.704000000     0.999000000
H    -4.294000000    -0.935000000     0.432000000
H    -4.250000000    -1.349000000     1.887000000
O    -0.208000000    -3.111000000    -3.039000000
H    -0.079000000    -3.914000000    -2.534000000
H    -0.413000000    -2.445000000    -2.382000000
O     3.677000000    -4.132000000     2.651000000
H     2.881000000    -4.303000000     2.146000000
H     3.426000000    -3.447000000     3.270000000
O     2.682000000     4.527000000     0.269000000
H     1.832000000     4.095000000     0.361000000
H     2.554000000     5.156000000    -0.441000000
O     3.322000000    -5.114000000    -3.288000000
H     2.502000000    -5.038000000    -3.775000000
H     3.995000000    -5.199000000    -3.963000000
O     4.136000000    -0.846000000    -1.004000000
H     3.417000000    -0.387000000    -1.439000000
H     3.892000000    -1.771000000    -1.049000000
O     2.994000000     5.394000000    -2.375000000
H     3.175000000     5.033000000    -3.243000000
H     3.792000000     5.870000000    -2.143000000
O     4.560000000     5.655000000     2.183000000
H     4.676000000     5.187000000     3.010000000
H     3.653000000     5.478000000     1.933000000
O    -1.201000000     6.676000000    -3.893000000
H    -1.783000000     7.324000000    -3.495000000
H    -1.114000000     5.993000000    -3.229000000
O    -4.415000000     2.229000000     0.837000000
H    -3.792000000     2.165000000     0.113000000
H    -4.208000000     3.063000000     1.258000000
O     2.134000000     0.505000000    -2.232000000
H     1.306000000     0.634000000    -1.768000000
H     1.888000000     0.050000000    -3.037000000
