158
-3045.62751
C     0.637000000     0.474000000    -1.233000000
H     1.113000000     0.932000000    -2.096000000
C     0.207000000     1.348000000    -0.237000000
H     0.527000000     2.386000000    -0.289000000
C    -0.440000000     0.805000000     0.853000000
H    -0.791000000     1.350000000     1.716000000
C    -0.595000000    -0.577000000     0.982000000
H    -1.150000000    -1.008000000     1.812000000
C    -0.153000000    -1.421000000    -0.031000000
H    -0.238000000    -2.504000000    -0.001000000
C     0.418000000    -0.895000000    -1.193000000
C     1.049000000    -1.868000000    -2.213000000
O     1.516000000    -1.503000000    -3.243000000
O     0.938000000    -3.059000000    -1.997000000
O     0.108000000    -1.840000000     4.824000000
H     0.892000000    -2.253000000     4.462000000
H     0.231000000    -1.882000000     5.772000000
O    -1.493000000    -3.293000000     3.245000000
H    -0.998000000    -2.682000000     3.792000000
H    -2.017000000    -2.732000000     2.674000000
O     0.949000000    -5.732000000    -2.669000000
H     0.325000000    -6.047000000    -2.015000000
H     1.047000000    -4.799000000    -2.476000000
O     2.379000000    -6.016000000    -5.026000000
H     1.699000000    -5.772000000    -4.398000000
H     1.953000000    -5.941000000    -5.880000000
O     1.439000000     4.391000000     0.965000000
H     1.922000000     4.577000000     0.159000000
H     2.066000000     3.923000000     1.517000000
O    -5.352000000     3.826000000     2.822000000
H    -5.848000000     3.292000000     3.443000000
H    -5.980000000     4.478000000     2.511000000
O    -0.034000000     1.005000000     4.221000000
H     0.131000000     0.062000000     4.237000000
H    -0.275000000     1.222000000     5.121000000
O     3.691000000     1.448000000    -3.566000000
H     3.384000000     1.356000000    -2.664000000
H     2.915000000     1.286000000    -4.102000000
O    -4.450000000     2.661000000    -1.987000000
H    -5.049000000     2.979000000    -1.311000000
H    -3.938000000     1.978000000    -1.551000000
O    -3.134000000     0.760000000    -3.944000000
H    -2.708000000     1.513000000    -4.355000000
H    -2.979000000     0.879000000    -3.007000000
O    -0.545000000    -6.390000000    -0.338000000
H    -1.448000000    -6.274000000    -0.042000000
H    -0.209000000    -7.110000000     0.195000000
O    -2.662000000    -0.879000000     5.362000000
H    -2.122000000    -1.669000000     5.324000000
H    -2.062000000    -0.192000000     5.650000000
O    -2.203000000     5.396000000     3.432000000
H    -1.452000000     5.990000000     3.406000000
H    -2.519000000     5.370000000     2.529000000
O     5.029000000    -2.871000000    -0.574000000
H     5.220000000    -3.469000000    -1.296000000
H     4.991000000    -2.006000000    -0.982000000
O    -1.072000000     4.554000000    -4.149000000
H    -0.824000000     5.194000000    -4.815000000
H    -1.153000000     3.729000000    -4.628000000
O     3.944000000    -3.662000000    -7.433000000
H     4.486000000    -4.296000000    -6.962000000
H     3.396000000    -3.266000000    -6.756000000
O     3.606000000    -3.618000000     1.725000000
H     3.832000000    -2.753000000     1.382000000
H     2.811000000    -3.863000000     1.251000000
O     5.552000000    -0.114000000    -0.608000000
H     5.460000000    -0.274000000     0.331000000
H     4.927000000     0.586000000    -0.794000000
O     2.579000000     0.771000000     1.539000000
H     2.625000000     0.513000000     2.460000000
H     1.681000000     0.568000000     1.278000000
O     4.535000000     4.014000000    -0.107000000
H     4.158000000     4.175000000     0.758000000
H     5.468000000     4.202000000     0.000000000
O    -1.588000000    -3.635000000    -2.199000000
H    -1.664000000    -2.854000000    -2.746000000
H    -0.668000000    -3.655000000    -1.935000000
O     2.259000000     5.443000000    -2.291000000
H     1.348000000     5.536000000    -2.014000000
H     2.209000000     5.296000000    -3.235000000
O     0.464000000     6.873000000     2.503000000
H     0.071000000     7.320000000     1.754000000
H     0.909000000     6.115000000     2.123000000
O     3.430000000     1.675000000    -0.960000000
H     3.738000000     2.546000000    -0.710000000
H     3.083000000     1.302000000    -0.149000000
O     1.826000000     4.041000000     5.886000000
H     1.463000000     4.921000000     5.983000000
H     1.656000000     3.810000000     4.973000000
O    -1.491000000    -5.754000000    -4.064000000
H    -0.555000000    -5.836000000    -3.885000000
H    -1.746000000    -4.938000000    -3.634000000
O    -1.137000000     2.058000000    -5.411000000
H    -1.042000000     1.984000000    -6.360000000
H    -0.648000000     1.313000000    -5.062000000
O     3.205000000    -2.807000000    -4.954000000
H     2.701000000    -2.420000000    -4.238000000
H     3.661000000    -3.547000000    -4.553000000
O    -3.736000000     0.214000000     3.092000000
H    -3.671000000    -0.122000000     3.986000000
H    -3.376000000     1.100000000     3.143000000
O     2.965000000    -0.162000000     4.217000000
H     3.765000000    -0.623000000     4.471000000
H     2.278000000    -0.567000000     4.747000000
O     5.733000000    -0.485000000    -3.562000000
H     5.320000000     0.370000000    -3.683000000
H     5.900000000    -0.539000000    -2.621000000
O     3.377000000     3.182000000     2.238000000
H     3.345000000     2.244000000     2.046000000
H     3.946000000     3.250000000     3.004000000
O    -0.452000000     5.882000000    -1.730000000
H    -1.102000000     5.829000000    -1.029000000
H    -0.744000000     5.240000000    -2.377000000
O    -2.758000000     0.646000000    -1.041000000
H    -3.192000000    -0.190000000    -0.874000000
H    -2.104000000     0.720000000    -0.346000000
O    -0.087000000    -3.337000000    -4.709000000
H     0.643000000    -2.937000000    -4.237000000
H    -0.821000000    -2.741000000    -4.565000000
O     1.409000000     0.515000000    -5.008000000
H     1.505000000    -0.247000000    -4.436000000
H     1.823000000     0.251000000    -5.830000000
O    -3.141000000    -6.346000000     0.853000000
H    -2.641000000    -6.266000000     1.666000000
H    -3.444000000    -5.457000000     0.670000000
O    -4.998000000     2.542000000     5.449000000
H    -4.865000000     1.595000000     5.395000000
H    -4.702000000     2.875000000     4.602000000
O    -1.102000000     0.905000000     6.781000000
H    -0.978000000     0.224000000     7.442000000
H    -1.547000000     1.613000000     7.247000000
O    -6.137000000     2.811000000     0.441000000
H    -5.568000000     3.057000000     1.170000000
H    -6.552000000     1.996000000     0.725000000
O     0.092000000     3.686000000     3.645000000
H     0.263000000     2.768000000     3.855000000
H     0.204000000     3.740000000     2.696000000
O     1.407000000    -4.506000000     0.311000000
H     1.260000000    -3.957000000    -0.459000000
H     0.822000000    -5.253000000     0.189000000
O     4.605000000    -5.353000000    -3.183000000
H     4.802000000    -5.839000000    -2.382000000
H     3.683000000    -5.539000000    -3.356000000
O    -4.791000000    -0.829000000     0.886000000
H    -4.290000000    -0.572000000     1.660000000
H    -5.578000000    -0.285000000     0.917000000
O    -3.549000000    -3.303000000     0.054000000
H    -3.919000000    -2.495000000     0.408000000
H    -3.013000000    -3.018000000    -0.685000000
O     4.675000000     4.227000000    -3.551000000
H     4.520000000     3.283000000    -3.583000000
H     3.800000000     4.611000000    -3.496000000
O    -2.330000000    -1.903000000    -4.301000000
H    -3.137000000    -2.130000000    -4.763000000
H    -2.424000000    -0.972000000    -4.099000000
O    -2.616000000     2.591000000     3.239000000
H    -3.138000000     3.392000000     3.197000000
H    -1.801000000     2.859000000     3.665000000
