158
-2974.66538
C     1.167000000     0.066000000    -0.873000000
H     2.098000000     0.214000000    -1.414000000
C     1.178000000     0.179000000     0.528000000
H     2.092000000     0.404000000     1.072000000
C     0.017000000     0.228000000     1.193000000
H     0.125000000     0.428000000     2.222000000
C    -1.164000000    -0.081000000     0.510000000
H    -2.078000000    -0.020000000     1.096000000
C    -1.185000000    -0.448000000    -0.829000000
H    -2.120000000    -0.637000000    -1.350000000
C    -0.018000000    -0.248000000    -1.544000000
C     0.041000000    -0.509000000    -3.028000000
O     1.087000000    -0.657000000    -3.583000000
O    -1.034000000    -0.608000000    -3.561000000
O     2.507000000    -2.923000000    -3.795000000
H     2.060000000    -2.089000000    -3.645000000
H     1.833000000    -3.586000000    -3.647000000
O     4.048000000     1.660000000     3.841000000
H     3.180000000     1.309000000     3.640000000
H     4.529000000     0.915000000     4.203000000
O    -4.996000000    -1.007000000     4.360000000
H    -5.345000000    -0.138000000     4.162000000
H    -4.046000000    -0.890000000     4.358000000
O     0.309000000    -4.412000000    -2.957000000
H     0.130000000    -5.344000000    -2.831000000
H    -0.489000000    -3.973000000    -2.662000000
O     3.323000000     4.582000000     1.688000000
H     2.416000000     4.280000000     1.740000000
H     3.729000000     4.260000000     2.492000000
O     4.228000000    -1.185000000     1.319000000
H     3.648000000    -1.817000000     0.895000000
H     5.110000000    -1.487000000     1.103000000
O     4.878000000     2.096000000    -2.714000000
H     5.055000000     2.744000000    -3.396000000
H     5.004000000     1.252000000    -3.147000000
O    -6.430000000    -0.773000000     0.919000000
H    -6.646000000    -0.507000000     1.813000000
H    -7.238000000    -1.160000000     0.583000000
O     0.755000000     4.537000000    -3.881000000
H     1.264000000     4.351000000    -4.670000000
H     1.177000000     4.019000000    -3.196000000
O     5.756000000     3.555000000     2.440000000
H     5.510000000     3.810000000     1.551000000
H     5.121000000     2.880000000     2.680000000
O    -3.057000000     4.938000000    -0.295000000
H    -3.356000000     4.079000000    -0.595000000
H    -2.344000000     5.165000000    -0.892000000
O     3.467000000     1.077000000    -6.633000000
H     4.161000000     1.248000000    -5.996000000
H     2.655000000     1.173000000    -6.134000000
O    -3.293000000     2.527000000    -1.709000000
H    -3.234000000     1.670000000    -2.132000000
H    -2.433000000     2.655000000    -1.308000000
O    -0.916000000    -4.511000000     0.614000000
H    -1.385000000    -4.045000000    -0.078000000
H    -1.445000000    -5.291000000     0.779000000
O    -2.541000000    -0.064000000     3.818000000
H    -2.176000000    -0.154000000     4.698000000
H    -1.976000000     0.579000000     3.389000000
O    -1.159000000     5.845000000     4.303000000
H    -0.331000000     6.132000000     3.920000000
H    -0.996000000     4.942000000     4.577000000
O    -1.891000000     1.708000000    -4.804000000
H    -2.576000000     1.425000000    -5.410000000
H    -1.642000000     0.912000000    -4.335000000
O    -4.992000000     0.183000000    -2.527000000
H    -5.263000000    -0.579000000    -3.039000000
H    -5.208000000     0.933000000    -3.081000000
O     7.228000000     0.962000000    -0.587000000
H     7.353000000     0.208000000    -1.163000000
H     6.488000000     1.434000000    -0.969000000
O     4.133000000    -4.593000000    -5.736000000
H     4.828000000    -4.028000000    -6.074000000
H     3.698000000    -4.064000000    -5.068000000
O     0.719000000    -2.919000000     2.654000000
H     0.431000000    -3.735000000     2.244000000
H    -0.072000000    -2.561000000     3.057000000
O     2.252000000    -3.153000000     0.006000000
H     1.391000000    -2.900000000    -0.328000000
H     2.062000000    -3.668000000     0.790000000
O    -1.576000000     0.121000000     6.362000000
H    -1.048000000     0.905000000     6.516000000
H    -2.131000000     0.051000000     7.139000000
O    -2.774000000    -2.665000000    -4.496000000
H    -3.404000000    -2.008000000    -4.793000000
H    -2.119000000    -2.165000000    -4.008000000
O     4.041000000    -4.036000000    -1.752000000
H     3.642000000    -3.670000000    -0.963000000
H     3.916000000    -3.360000000    -2.419000000
O     0.040000000    -1.549000000    -8.929000000
H     0.185000000    -1.247000000    -8.032000000
H     0.584000000    -2.333000000    -9.009000000
O    -2.582000000    -5.195000000    -5.203000000
H    -2.715000000    -4.303000000    -4.883000000
H    -1.672000000    -5.212000000    -5.497000000
O     2.487000000     3.804000000    -2.053000000
H     2.215000000     3.346000000    -1.257000000
H     3.218000000     3.285000000    -2.389000000
O    -0.875000000     3.613000000    -6.688000000
H    -1.506000000     3.206000000    -6.094000000
H    -1.090000000     4.546000000    -6.664000000
O     1.299000000     1.366000000    -5.318000000
H     0.437000000     1.773000000    -5.399000000
H     1.212000000     0.763000000    -4.580000000
O     2.315000000    -1.582000000     6.741000000
H     2.868000000    -2.304000000     6.443000000
H     2.236000000    -1.010000000     5.978000000
O    -4.611000000    -2.189000000    -0.820000000
H    -4.875000000    -1.631000000    -1.551000000
H    -5.131000000    -1.877000000    -0.080000000
O     4.549000000    -0.280000000    -4.114000000
H     3.646000000    -0.572000000    -4.241000000
H     5.074000000    -1.073000000    -4.223000000
O    -1.405000000     3.282000000     5.231000000
H    -0.669000000     3.481000000     5.809000000
H    -2.161000000     3.229000000     5.816000000
O    -0.682000000     2.710000000    -0.546000000
H    -1.027000000     2.849000000     0.335000000
H    -0.115000000     1.944000000    -0.463000000
O    -0.020000000    -1.693000000    -5.885000000
H     0.296000000    -1.181000000    -5.140000000
H    -0.761000000    -2.189000000    -5.537000000
O    -3.930000000    -3.269000000     1.856000000
H    -4.257000000    -3.650000000     1.041000000
H    -4.073000000    -2.328000000     1.755000000
O     5.189000000    -0.728000000     4.955000000
H     5.924000000    -0.946000000     4.381000000
H     4.666000000    -1.529000000     4.988000000
O    -2.342000000    -3.668000000     7.134000000
H    -2.054000000    -3.123000000     6.402000000
H    -1.600000000    -3.669000000     7.739000000
O    -1.987000000    -4.219000000     3.176000000
H    -2.880000000    -3.946000000     2.967000000
H    -1.543000000    -4.256000000     2.328000000
O    -1.892000000     2.870000000     2.673000000
H    -1.731000000     3.027000000     3.604000000
H    -2.771000000     2.493000000     2.642000000
O    -5.267000000    -4.808000000    -0.059000000
H    -5.096000000    -3.914000000    -0.356000000
H    -5.126000000    -5.350000000    -0.836000000
O     2.362000000    -0.820000000     3.550000000
H     1.654000000    -1.444000000     3.391000000
H     3.001000000    -1.000000000     2.861000000
O    -2.626000000    -3.514000000    -1.754000000
H    -2.989000000    -2.802000000    -1.228000000
H    -3.101000000    -3.465000000    -2.584000000
O     6.750000000     0.299000000     2.228000000
H     7.385000000     0.253000000     1.513000000
H     5.936000000    -0.028000000     1.846000000
O    -4.083000000    -0.302000000    -5.550000000
H    -4.812000000    -0.731000000    -5.998000000
H    -4.499000000     0.340000000    -4.975000000
O    -6.183000000     1.770000000    -0.373000000
H    -5.585000000     2.002000000    -1.084000000
H    -5.659000000     1.222000000     0.212000000
O     0.552000000     3.747000000     2.014000000
H    -0.305000000     3.405000000     2.265000000
H     0.479000000     4.693000000     2.140000000
