158
-3053.23722
C    -0.483000000    -0.369000000    -1.310000000
H    -0.816000000    -0.512000000    -2.335000000
C     0.281000000     0.775000000    -0.975000000
H     0.517000000     1.457000000    -1.788000000
C     0.744000000     0.931000000     0.268000000
H     1.428000000     1.758000000     0.463000000
C     0.405000000     0.042000000     1.278000000
H     0.678000000     0.326000000     2.291000000
C    -0.410000000    -1.035000000     0.970000000
H    -0.759000000    -1.720000000     1.739000000
C    -0.767000000    -1.334000000    -0.292000000
C    -1.558000000    -2.546000000    -0.717000000
O    -1.813000000    -2.781000000    -1.876000000
O    -2.188000000    -3.206000000     0.138000000
O    -2.663000000    -6.018000000    -5.113000000
H    -3.460000000    -5.600000000    -5.438000000
H    -2.009000000    -5.847000000    -5.791000000
O     2.875000000    -3.085000000    -1.729000000
H     2.107000000    -2.991000000    -2.292000000
H     3.310000000    -2.233000000    -1.773000000
O    -1.192000000    -7.401000000    -0.769000000
H    -1.672000000    -8.168000000    -0.457000000
H    -1.493000000    -7.279000000    -1.669000000
O    -1.282000000    -1.582000000     5.345000000
H    -2.177000000    -1.901000000     5.226000000
H    -0.890000000    -1.640000000     4.474000000
O     3.586000000     1.213000000     3.652000000
H     3.718000000     1.543000000     4.540000000
H     2.934000000     1.802000000     3.272000000
O     0.734000000     3.936000000    -4.511000000
H     0.739000000     3.910000000    -3.554000000
H     1.657000000     4.007000000    -4.753000000
O     2.413000000    -3.322000000     0.963000000
H     1.709000000    -3.962000000     0.855000000
H     2.616000000    -3.037000000     0.072000000
O    -1.696000000     5.301000000    -2.016000000
H    -1.627000000     5.409000000    -1.068000000
H    -1.959000000     4.388000000    -2.135000000
O    -5.580000000    -2.013000000    -3.694000000
H    -5.556000000    -2.489000000    -2.864000000
H    -4.679000000    -1.717000000    -3.827000000
O     5.921000000     3.794000000     0.579000000
H     5.441000000     4.288000000     1.244000000
H     5.384000000     3.870000000    -0.209000000
O    -0.727000000     2.841000000     3.560000000
H    -1.449000000     3.427000000     3.787000000
H    -0.556000000     2.349000000     4.363000000
O    -2.326000000     2.521000000    -2.317000000
H    -3.099000000     2.055000000    -1.999000000
H    -1.920000000     1.916000000    -2.938000000
O     2.723000000     1.579000000    -3.655000000
H     1.917000000     1.186000000    -3.990000000
H     3.018000000     0.978000000    -2.971000000
O     1.791000000    -0.147000000     7.136000000
H     2.083000000    -0.662000000     6.384000000
H     0.861000000     0.010000000     6.972000000
O    -1.210000000     3.302000000    -6.114000000
H    -1.943000000     3.885000000    -6.311000000
H    -0.704000000     3.771000000    -5.450000000
O    -5.876000000    -2.890000000     1.277000000
H    -5.958000000    -3.414000000     2.074000000
H    -6.757000000    -2.545000000     1.127000000
O     4.127000000    -0.418000000     1.375000000
H     4.119000000     0.019000000     2.227000000
H     3.347000000    -0.973000000     1.383000000
O     0.710000000    -5.347000000     0.038000000
H     0.929000000    -5.332000000    -0.894000000
H    -0.096000000    -5.861000000     0.087000000
O     2.272000000    -4.127000000     4.391000000
H     2.508000000    -3.206000000     4.499000000
H     1.354000000    -4.172000000     4.659000000
O    -3.723000000    -2.722000000     4.548000000
H    -3.298000000    -3.053000000     3.756000000
H    -4.126000000    -3.495000000     4.943000000
O     1.737000000     3.841000000     3.430000000
H     1.904000000     4.345000000     4.226000000
H     0.788000000     3.716000000     3.419000000
O     0.558000000     6.901000000     0.291000000
H    -0.335000000     6.647000000     0.524000000
H     1.090000000     6.137000000     0.511000000
O    -3.473000000    -5.494000000    -0.766000000
H    -3.038000000    -4.665000000    -0.966000000
H    -2.786000000    -6.039000000    -0.382000000
O     0.753000000    -0.696000000    -5.147000000
H     1.635000000    -0.797000000    -5.506000000
H     0.182000000    -1.105000000    -5.798000000
O     4.903000000     4.541000000    -2.067000000
H     5.558000000     5.208000000    -2.271000000
H     4.869000000     3.990000000    -2.849000000
O    -5.068000000    -5.428000000    -3.166000000
H    -5.042000000    -6.305000000    -2.783000000
H    -4.739000000    -4.855000000    -2.473000000
O    -4.986000000    -3.134000000    -1.377000000
H    -5.688000000    -3.219000000    -0.732000000
H    -4.191000000    -3.035000000    -0.854000000
O     6.430000000     0.703000000     4.194000000
H     6.284000000     0.182000000     4.983000000
H     5.674000000     1.288000000     4.149000000
O    -2.196000000     5.555000000     0.644000000
H    -2.350000000     4.649000000     0.914000000
H    -3.052000000     5.866000000     0.350000000
O     2.332000000     5.315000000    -2.409000000
H     3.054000000     4.853000000    -1.983000000
H     1.664000000     5.394000000    -1.729000000
O     0.817000000    -2.650000000    -3.271000000
H     0.791000000    -1.831000000    -3.766000000
H    -0.077000000    -2.763000000    -2.948000000
O     2.344000000     4.982000000     1.015000000
H     3.043000000     5.503000000     1.408000000
H     2.151000000     4.308000000     1.667000000
O    -4.395000000     1.725000000     1.463000000
H    -3.768000000     2.187000000     0.907000000
H    -4.254000000     0.799000000     1.266000000
O     3.402000000    -1.521000000     5.058000000
H     3.418000000    -0.889000000     4.339000000
H     4.322000000    -1.639000000     5.294000000
O     1.378000000    -5.915000000    -2.674000000
H     0.681000000    -5.416000000    -3.102000000
H     2.151000000    -5.759000000    -3.217000000
O     4.306000000     6.113000000     2.484000000
H     5.083000000     6.650000000     2.325000000
H     4.038000000     6.337000000     3.375000000
O    -4.075000000     0.359000000    -1.538000000
H    -4.030000000    -0.248000000    -0.799000000
H    -4.205000000    -0.203000000    -2.302000000
O    -2.433000000    -4.343000000     2.513000000
H    -3.131000000    -4.998000000     2.526000000
H    -2.467000000    -3.974000000     1.630000000
O    -1.347000000    -5.333000000    -3.089000000
H    -2.033000000    -5.543000000    -3.723000000
H    -1.656000000    -4.538000000    -2.655000000
O    -1.502000000     1.036000000    -4.435000000
H    -0.623000000     0.681000000    -4.569000000
H    -1.556000000     1.776000000    -5.040000000
O    -5.886000000    -6.376000000    -0.031000000
H    -5.112000000    -5.848000000    -0.229000000
H    -6.606000000    -5.917000000    -0.464000000
O    -4.317000000    -6.231000000     2.246000000
H    -4.995000000    -6.409000000     1.595000000
H    -4.421000000    -6.926000000     2.896000000
O    -3.905000000    -0.932000000     0.922000000
H    -3.167000000    -1.527000000     0.791000000
H    -4.632000000    -1.503000000     1.169000000
O     5.128000000     2.402000000    -4.570000000
H     4.299000000     2.053000000    -4.243000000
H     5.772000000     1.724000000    -4.362000000
O     3.894000000    -0.456000000    -1.523000000
H     4.841000000    -0.571000000    -1.446000000
H     3.643000000     0.010000000    -0.725000000
O    -1.778000000     2.948000000     1.050000000
H    -1.172000000     2.411000000     0.539000000
H    -1.579000000     2.733000000     1.961000000
O    -0.573000000    -5.761000000     3.602000000
H    -1.032000000    -5.216000000     2.963000000
H    -0.645000000    -5.278000000     4.425000000
O    -3.056000000    -0.995000000    -3.888000000
H    -2.332000000    -0.455000000    -4.205000000
H    -2.671000000    -1.526000000    -3.190000000
