158
-3049.58012
C     0.785000000    -0.321000000    -1.147000000
H     1.517000000    -0.416000000    -1.944000000
C     1.132000000     0.535000000    -0.144000000
H     2.112000000     1.003000000    -0.194000000
C     0.287000000     0.802000000     0.906000000
H     0.552000000     1.327000000     1.795000000
C    -0.919000000     0.072000000     0.943000000
H    -1.521000000     0.136000000     1.846000000
C    -1.291000000    -0.750000000    -0.140000000
H    -2.253000000    -1.253000000    -0.083000000
C    -0.430000000    -0.952000000    -1.167000000
C    -0.913000000    -1.823000000    -2.294000000
O    -0.200000000    -1.972000000    -3.280000000
O    -1.991000000    -2.343000000    -2.328000000
O     3.652000000     0.757000000    -5.219000000
H     3.783000000     1.699000000    -5.113000000
H     2.706000000     0.659000000    -5.335000000
O    -0.114000000    -5.752000000     0.082000000
H    -0.835000000    -5.140000000    -0.065000000
H     0.650000000    -5.193000000     0.225000000
O    -6.480000000    -2.065000000     2.702000000
H    -6.377000000    -1.491000000     1.943000000
H    -7.210000000    -2.639000000     2.470000000
O    -2.890000000    -7.237000000    -1.422000000
H    -2.563000000    -6.338000000    -1.398000000
H    -2.800000000    -7.549000000    -0.522000000
O     1.049000000     1.284000000     5.994000000
H     0.699000000     1.743000000     6.758000000
H     1.998000000     1.389000000     6.066000000
O     5.246000000     2.734000000     2.771000000
H     6.114000000     3.109000000     2.623000000
H     4.946000000     2.473000000     1.900000000
O     4.634000000     0.348000000    -2.260000000
H     3.962000000     1.024000000    -2.167000000
H     4.693000000     0.197000000    -3.203000000
O     1.929000000     7.152000000    -0.032000000
H     1.865000000     6.493000000     0.659000000
H     2.364000000     6.699000000    -0.754000000
O    -1.353000000     2.035000000    -6.300000000
H    -1.350000000     1.079000000    -6.257000000
H    -2.015000000     2.300000000    -5.661000000
O    -4.334000000    -4.120000000    -5.914000000
H    -4.808000000    -3.648000000    -5.229000000
H    -3.469000000    -4.284000000    -5.538000000
O    -0.066000000    -0.553000000     4.332000000
H     0.427000000     0.206000000     4.645000000
H    -0.734000000    -0.698000000     5.002000000
O    -6.190000000    -0.424000000     0.242000000
H    -7.115000000    -0.330000000     0.015000000
H    -5.795000000    -0.833000000    -0.528000000
O    -2.966000000     1.969000000     4.438000000
H    -3.867000000     2.285000000     4.377000000
H    -2.672000000     2.247000000     5.306000000
O    -4.817000000    -3.745000000    -0.051000000
H    -5.372000000    -4.514000000    -0.176000000
H    -5.196000000    -3.079000000    -0.624000000
O     3.402000000     4.182000000     4.116000000
H     3.923000000     3.539000000     3.635000000
H     3.946000000     4.419000000     4.867000000
O     1.441000000    -4.079000000    -2.566000000
H     0.956000000    -3.360000000    -2.969000000
H     2.277000000    -3.690000000    -2.309000000
O     1.969000000    -4.373000000     1.650000000
H     1.696000000    -3.473000000     1.824000000
H     2.902000000    -4.387000000     1.864000000
O     1.120000000     6.111000000     4.645000000
H     0.288000000     5.647000000     4.736000000
H     1.764000000     5.420000000     4.490000000
O    -2.227000000    -4.518000000    -0.730000000
H    -3.155000000    -4.499000000    -0.497000000
H    -2.125000000    -3.812000000    -1.368000000
O     4.273000000     3.032000000     0.099000000
H     5.011000000     3.384000000    -0.398000000
H     3.629000000     2.790000000    -0.566000000
O     0.058000000     2.581000000    -3.406000000
H    -0.012000000     1.892000000    -4.067000000
H    -0.606000000     2.357000000    -2.755000000
O     3.559000000    -1.759000000    -6.242000000
H     2.666000000    -2.094000000    -6.152000000
H     3.507000000    -0.855000000    -5.932000000
O    -4.522000000    -1.414000000    -2.182000000
H    -3.609000000    -1.699000000    -2.226000000
H    -4.498000000    -0.493000000    -2.441000000
O    -5.902000000    -2.439000000    -4.519000000
H    -5.711000000    -2.098000000    -3.646000000
H    -6.844000000    -2.309000000    -4.627000000
O     5.878000000    -0.147000000     2.656000000
H     6.060000000    -0.223000000     1.719000000
H     5.484000000     0.720000000     2.754000000
O    -4.349000000     3.190000000    -1.278000000
H    -5.178000000     3.607000000    -1.514000000
H    -4.600000000     2.457000000    -0.716000000
O     0.989000000    -2.434000000    -5.965000000
H     0.942000000    -3.364000000    -6.185000000
H     0.388000000    -2.332000000    -5.227000000
O    -1.268000000    -1.069000000     6.847000000
H    -1.526000000    -1.844000000     7.346000000
H    -0.351000000    -0.926000000     7.083000000
O     2.445000000     4.709000000     1.660000000
H     2.793000000     4.644000000     2.549000000
H     3.093000000     4.262000000     1.115000000
O     3.824000000    -2.817000000    -2.627000000
H     4.236000000    -1.955000000    -2.573000000
H     4.529000000    -3.404000000    -2.900000000
O     2.621000000     2.357000000    -2.416000000
H     1.774000000     2.392000000    -2.861000000
H     2.998000000     3.226000000    -2.550000000
O    -0.512000000     7.791000000     2.648000000
H    -0.045000000     7.602000000     3.462000000
H    -0.379000000     7.012000000     2.109000000
O    -1.833000000     2.112000000    -1.411000000
H    -2.663000000     2.475000000    -1.103000000
H    -1.570000000     1.499000000    -0.724000000
O    -1.986000000    -4.135000000    -4.229000000
H    -2.004000000    -3.406000000    -3.609000000
H    -1.517000000    -4.830000000    -3.769000000
O     1.068000000     0.023000000    -4.708000000
H     0.878000000    -0.786000000    -4.233000000
H     0.770000000    -0.149000000    -5.601000000
O    -3.841000000    -3.204000000     2.531000000
H    -4.731000000    -2.898000000     2.704000000
H    -3.785000000    -3.251000000     1.576000000
O    -0.401000000    -6.374000000    -2.615000000
H     0.305000000    -5.769000000    -2.387000000
H    -0.636000000    -6.792000000    -1.787000000
O    -1.460000000    -2.819000000     3.923000000
H    -0.956000000    -2.020000000     3.767000000
H    -2.168000000    -2.785000000     3.279000000
O    -4.349000000     1.482000000     1.122000000
H    -3.858000000     1.232000000     1.905000000
H    -4.742000000     0.665000000     0.815000000
O     1.617000000    -1.830000000     2.687000000
H     1.744000000    -1.251000000     1.935000000
H     0.979000000    -1.374000000     3.236000000
O     6.566000000     0.226000000    -0.089000000
H     7.055000000    -0.483000000    -0.509000000
H     5.886000000     0.455000000    -0.722000000
O    -2.945000000     4.679000000     2.887000000
H    -2.308000000     4.884000000     2.203000000
H    -3.261000000     3.803000000     2.666000000
O    -1.371000000     4.751000000     5.411000000
H    -1.777000000     4.665000000     4.549000000
H    -2.088000000     5.017000000     5.988000000
O     0.227000000    -5.049000000    -5.655000000
H     0.640000000    -5.707000000    -5.096000000
H    -0.709000000    -5.134000000    -5.472000000
O     0.214000000    -0.641000000    -7.871000000
H     0.247000000    -1.275000000    -7.155000000
H    -0.454000000    -0.986000000    -8.465000000
O    -0.251000000     4.938000000     1.433000000
H    -0.226000000     4.725000000     0.500000000
H     0.669000000     5.014000000     1.686000000
O     1.936000000    -3.534000000     5.099000000
H     1.094000000    -3.990000000     5.105000000
H     1.787000000    -2.763000000     4.552000000
O    -1.937000000    -1.575000000    -5.838000000
H    -2.287000000    -2.462000000    -5.923000000
H    -1.478000000    -1.578000000    -4.998000000
