158
-3003.74583
C     0.822000000    -0.198000000    -1.216000000
H     1.521000000    -0.267000000    -2.046000000
C     1.290000000     0.353000000    -0.017000000
H     2.311000000     0.721000000    -0.073000000
C     0.422000000     0.429000000     1.092000000
H     0.814000000     0.926000000     1.957000000
C    -0.858000000    -0.139000000     0.996000000
H    -1.496000000     0.028000000     1.860000000
C    -1.283000000    -0.690000000    -0.184000000
H    -2.311000000    -1.027000000    -0.292000000
C    -0.496000000    -0.696000000    -1.327000000
C    -1.093000000    -1.018000000    -2.685000000
O    -0.523000000    -0.699000000    -3.708000000
O    -2.209000000    -1.527000000    -2.694000000
O    -1.001000000    -6.106000000    -2.429000000
H    -1.669000000    -5.541000000    -2.816000000
H    -0.793000000    -5.692000000    -1.591000000
O    -0.146000000     2.536000000     6.935000000
H     0.648000000     2.577000000     7.468000000
H    -0.429000000     3.447000000     6.856000000
O    -5.744000000    -0.626000000     1.250000000
H    -5.588000000    -0.828000000     0.328000000
H    -6.626000000    -0.957000000     1.421000000
O    -2.422000000     1.925000000    -4.337000000
H    -3.023000000     1.966000000    -3.594000000
H    -1.932000000     1.113000000    -4.206000000
O     0.983000000     1.782000000     4.524000000
H     0.562000000     2.179000000     5.287000000
H     1.511000000     1.070000000     4.886000000
O     3.732000000    -0.134000000     3.812000000
H     4.620000000    -0.445000000     3.986000000
H     3.191000000    -0.922000000     3.848000000
O     4.351000000     0.796000000    -1.729000000
H     4.147000000     1.261000000    -2.540000000
H     4.558000000    -0.095000000    -2.008000000
O     0.626000000     6.148000000     1.343000000
H     0.001000000     6.840000000     1.559000000
H     0.098000000     5.351000000     1.303000000
O    -2.467000000     2.331000000    -7.245000000
H    -1.861000000     1.686000000    -7.612000000
H    -2.638000000     2.020000000    -6.356000000
O     3.709000000    -2.150000000    -6.024000000
H     4.291000000    -1.497000000    -6.414000000
H     3.956000000    -2.170000000    -5.100000000
O    -5.310000000     1.117000000    -5.530000000
H    -5.158000000     0.363000000    -4.960000000
H    -6.261000000     1.153000000    -5.631000000
O    -4.565000000    -1.498000000     3.560000000
H    -5.156000000    -1.056000000     4.169000000
H    -5.014000000    -1.455000000     2.716000000
O    -2.004000000     1.009000000     5.894000000
H    -1.284000000     1.550000000     6.219000000
H    -2.763000000     1.290000000     6.404000000
O     4.203000000     3.607000000    -0.180000000
H     3.645000000     4.182000000     0.343000000
H     4.353000000     2.845000000     0.379000000
O    -2.218000000    -1.036000000     4.392000000
H    -3.128000000    -1.022000000     4.095000000
H    -2.083000000    -0.177000000     4.792000000
O    -5.818000000    -1.381000000    -1.402000000
H    -6.486000000    -1.330000000    -2.086000000
H    -4.987000000    -1.306000000    -1.871000000
O    -4.427000000     1.997000000     3.545000000
H    -5.087000000     1.656000000     4.148000000
H    -4.859000000     2.731000000     3.108000000
O    -5.118000000    -3.827000000    -0.003000000
H    -5.955000000    -4.275000000     0.121000000
H    -5.357000000    -2.954000000    -0.313000000
O     3.432000000     2.415000000     2.256000000
H     3.405000000     1.623000000     2.793000000
H     2.515000000     2.678000000     2.171000000
O     1.705000000    -4.086000000    -3.452000000
H     2.158000000    -4.926000000    -3.524000000
H     2.372000000    -3.482000000    -3.124000000
O     0.362000000    -5.281000000    -0.165000000
H     0.824000000    -4.481000000     0.086000000
H     1.057000000    -5.923000000    -0.311000000
O     4.833000000     4.337000000     4.454000000
H     4.583000000     3.844000000     5.235000000
H     4.449000000     3.847000000     3.728000000
O    -3.041000000    -4.141000000    -1.637000000
H    -3.746000000    -4.215000000    -0.994000000
H    -3.015000000    -3.210000000    -1.858000000
O     5.858000000     3.612000000    -2.601000000
H     5.399000000     3.283000000    -1.828000000
H     5.207000000     4.145000000    -3.057000000
O     0.609000000     3.847000000    -3.398000000
H     0.582000000     2.983000000    -3.808000000
H     0.017000000     3.776000000    -2.649000000
O     3.583000000    -3.556000000    -0.437000000
H     2.828000000    -3.153000000    -0.008000000
H     3.632000000    -3.125000000    -1.290000000
O    -4.400000000    -0.857000000    -3.699000000
H    -3.473000000    -0.902000000    -3.464000000
H    -4.603000000    -1.729000000    -4.039000000
O    -5.407000000    -3.223000000    -4.724000000
H    -5.645000000    -4.147000000    -4.796000000
H    -5.747000000    -2.824000000    -5.524000000
O     5.411000000    -0.596000000     0.114000000
H     4.845000000     0.025000000    -0.345000000
H     5.747000000    -0.106000000     0.864000000
O    -3.459000000     2.077000000    -1.757000000
H    -4.174000000     2.654000000    -2.025000000
H    -3.599000000     1.942000000    -0.820000000
O     0.331000000    -1.115000000    -6.258000000
H     0.727000000    -1.987000000    -6.264000000
H     0.028000000    -0.996000000    -5.358000000
O     0.183000000    -1.455000000     6.258000000
H    -0.236000000    -1.303000000     5.411000000
H     1.024000000    -1.004000000     6.194000000
O    -0.970000000     4.072000000     0.855000000
H    -1.371000000     3.574000000     1.567000000
H    -1.089000000     3.521000000     0.081000000
O     4.358000000    -2.667000000    -3.163000000
H     5.071000000    -2.076000000    -3.404000000
H     4.721000000    -3.544000000    -3.287000000
O     2.901000000     2.313000000    -4.545000000
H     2.026000000     1.984000000    -4.750000000
H     2.746000000     3.131000000    -4.073000000
O    -0.877000000     2.925000000    -1.455000000
H    -1.726000000     2.709000000    -1.840000000
H    -0.564000000     2.098000000    -1.088000000
O    -0.988000000    -3.682000000    -4.317000000
H    -1.254000000    -2.972000000    -3.733000000
H    -0.059000000    -3.813000000    -4.127000000
O     0.340000000     1.505000000    -4.955000000
H     0.194000000     0.834000000    -4.289000000
H     0.204000000     1.052000000    -5.787000000
O    -3.368000000    -4.031000000     2.826000000
H    -3.795000000    -3.194000000     3.013000000
H    -3.548000000    -4.190000000     1.900000000
O    -0.976000000    -2.764000000     2.632000000
H    -1.200000000    -2.003000000     3.168000000
H    -1.774000000    -3.292000000     2.620000000
O    -4.373000000     1.840000000     0.590000000
H    -4.865000000     1.021000000     0.646000000
H    -4.764000000     2.401000000     1.259000000
O     1.416000000    -2.894000000     1.010000000
H     0.659000000    -2.947000000     1.594000000
H     1.440000000    -1.978000000     0.733000000
O    -3.357000000     5.129000000     4.227000000
H    -2.693000000     4.530000000     3.883000000
H    -3.598000000     4.757000000     5.075000000
O     2.728000000    -0.059000000     6.382000000
H     3.208000000     0.141000000     5.579000000
H     2.909000000     0.682000000     6.961000000
O    -0.365000000     0.878000000    -7.850000000
H    -0.161000000     0.028000000    -7.461000000
H    -0.647000000     0.672000000    -8.741000000
O    -1.574000000     2.817000000     3.395000000
H    -0.925000000     2.288000000     3.859000000
H    -2.396000000     2.339000000     3.505000000
O     2.738000000    -2.877000000     4.055000000
H     1.809000000    -3.097000000     4.113000000
H     3.153000000    -3.410000000     4.733000000
O    -2.848000000    -1.771000000    -6.553000000
H    -2.105000000    -1.677000000    -5.957000000
H    -3.158000000    -0.876000000    -6.693000000
