158
-3030.25616
C     0.144000000    -0.150000000    -1.458000000
H     0.347000000    -0.216000000    -2.524000000
C     0.979000000     0.614000000    -0.587000000
H     1.842000000     1.087000000    -1.048000000
C     0.673000000     0.689000000     0.759000000
H     1.228000000     1.403000000     1.310000000
C    -0.339000000    -0.063000000     1.313000000
H    -0.528000000     0.012000000     2.381000000
C    -1.074000000    -0.979000000     0.506000000
H    -1.899000000    -1.569000000     0.897000000
C    -0.795000000    -0.957000000    -0.914000000
C    -1.556000000    -1.948000000    -1.843000000
O    -1.059000000    -2.343000000    -2.869000000
O    -2.723000000    -2.067000000    -1.652000000
O     3.783000000    -2.178000000    -4.344000000
H     3.270000000    -1.735000000    -5.020000000
H     4.469000000    -2.638000000    -4.827000000
O     1.831000000    -1.698000000     5.873000000
H     0.904000000    -1.601000000     5.656000000
H     2.288000000    -1.540000000     5.046000000
O     2.838000000     1.281000000     3.533000000
H     3.673000000     1.668000000     3.797000000
H     2.231000000     2.020000000     3.499000000
O     0.694000000     4.240000000    -5.023000000
H    -0.044000000     4.114000000    -4.426000000
H     1.464000000     4.237000000    -4.455000000
O     3.156000000    -2.144000000    -1.534000000
H     3.136000000    -2.136000000    -2.491000000
H     2.582000000    -2.870000000    -1.289000000
O     0.081000000     6.529000000    -2.078000000
H     0.882000000     6.015000000    -2.176000000
H    -0.460000000     6.016000000    -1.477000000
O    -4.589000000     0.162000000    -6.253000000
H    -3.874000000    -0.279000000    -5.795000000
H    -4.154000000     0.800000000    -6.818000000
O    -2.452000000     4.544000000     4.588000000
H    -2.363000000     3.602000000     4.735000000
H    -2.097000000     4.684000000     3.710000000
O     5.544000000     0.208000000    -3.380000000
H     6.366000000    -0.215000000    -3.133000000
H     4.922000000    -0.514000000    -3.475000000
O    -0.645000000     5.492000000     2.563000000
H    -0.799000000     5.150000000     1.682000000
H    -0.566000000     6.439000000     2.442000000
O     2.368000000     1.258000000     6.776000000
H     2.560000000     0.612000000     6.096000000
H     1.484000000     1.564000000     6.574000000
O    -4.294000000    -0.936000000     3.620000000
H    -3.613000000    -1.594000000     3.760000000
H    -4.953000000    -1.384000000     3.089000000
O     4.457000000     0.358000000    -0.456000000
H     4.024000000    -0.396000000    -0.855000000
H     4.812000000     0.022000000     0.367000000
O     0.952000000    -3.819000000    -1.933000000
H     1.019000000    -4.541000000    -2.558000000
H     0.227000000    -3.286000000    -2.260000000
O     1.212000000    -3.316000000     2.103000000
H     0.678000000    -3.112000000     1.336000000
H     1.653000000    -2.493000000     2.314000000
O    -0.687000000    -1.637000000     5.280000000
H    -1.406000000    -1.323000000     5.828000000
H    -1.041000000    -2.411000000     4.841000000
O     1.135000000     3.768000000     3.973000000
H     0.564000000     3.570000000     4.715000000
H     0.570000000     4.225000000     3.351000000
O    -3.413000000     1.585000000     4.004000000
H    -2.837000000     1.162000000     4.640000000
H    -3.971000000     0.878000000     3.679000000
O     2.688000000     7.456000000     1.563000000
H     3.269000000     6.876000000     1.070000000
H     1.809000000     7.226000000     1.262000000
O    -3.197000000    -4.314000000    -3.647000000
H    -3.922000000    -4.079000000    -3.067000000
H    -2.502000000    -3.693000000    -3.425000000
O     2.567000000     1.104000000    -3.809000000
H     3.145000000     0.849000000    -3.090000000
H     2.647000000     2.057000000    -3.854000000
O    -3.861000000    -6.220000000    -5.451000000
H    -4.348000000    -6.940000000    -5.051000000
H    -3.679000000    -5.622000000    -4.725000000
O    -4.368000000    -0.031000000    -3.050000000
H    -3.735000000    -0.584000000    -2.592000000
H    -5.212000000    -0.263000000    -2.665000000
O    -6.863000000     0.103000000     0.496000000
H    -6.681000000    -0.081000000    -0.426000000
H    -7.442000000     0.865000000     0.479000000
O     5.688000000     0.293000000     2.029000000
H     6.393000000     0.938000000     2.077000000
H     4.948000000     0.714000000     2.466000000
O     3.146000000     5.058000000     2.721000000
H     2.558000000     4.396000000     3.084000000
H     3.392000000     5.597000000     3.473000000
O     2.438000000     5.122000000    -2.923000000
H     3.326000000     5.112000000    -3.281000000
H     2.515000000     4.679000000    -2.078000000
O     0.055000000    -2.841000000    -5.667000000
H     0.637000000    -2.083000000    -5.605000000
H    -0.634000000    -2.666000000    -5.026000000
O    -2.890000000    -3.712000000     3.249000000
H    -3.776000000    -4.040000000     3.403000000
H    -2.468000000    -4.395000000     2.728000000
O     3.306000000     3.229000000    -1.051000000
H     4.186000000     3.603000000    -1.031000000
H     3.426000000     2.319000000    -0.780000000
O     5.211000000     2.223000000     4.557000000
H     4.950000000     2.796000000     5.278000000
H     5.824000000     2.749000000     4.043000000
O    -1.104000000     4.640000000     0.022000000
H    -0.160000000     4.643000000    -0.135000000
H    -1.366000000     3.729000000    -0.113000000
O     3.104000000    -1.636000000     3.419000000
H     3.166000000    -0.681000000     3.385000000
H     3.871000000    -1.943000000     2.935000000
O     0.884000000    -5.417000000    -4.612000000
H     1.027000000    -4.562000000    -5.019000000
H     1.677000000    -5.914000000    -4.816000000
O     6.268000000     4.700000000     3.008000000
H     6.788000000     5.381000000     2.581000000
H     5.360000000     4.964000000     2.862000000
O    -2.995000000     2.225000000    -3.555000000
H    -3.668000000     1.547000000    -3.494000000
H    -2.616000000     2.265000000    -2.677000000
O    -4.768000000    -2.305000000    -0.127000000
H    -4.670000000    -3.231000000     0.094000000
H    -3.994000000    -2.100000000    -0.652000000
O    -1.767000000    -5.291000000    -7.000000000
H    -2.394000000    -5.816000000    -6.503000000
H    -1.754000000    -4.445000000    -6.552000000
O     0.233000000     0.326000000    -5.345000000
H     0.166000000     0.737000000    -6.207000000
H     1.006000000     0.726000000    -4.948000000
O    -1.801000000    -5.963000000     2.098000000
H    -1.702000000    -6.607000000     1.397000000
H    -1.164000000    -6.230000000     2.761000000
O    -1.970000000     2.264000000    -0.668000000
H    -1.371000000     1.565000000    -0.930000000
H    -2.473000000     1.890000000     0.055000000
O    -1.480000000    -1.359000000    -8.358000000
H    -1.314000000    -1.645000000    -7.460000000
H    -1.991000000    -2.070000000    -8.745000000
O    -0.128000000     2.287000000     5.880000000
H    -0.425000000     2.911000000     6.542000000
H    -0.740000000     1.555000000     5.948000000
O    -4.186000000     0.705000000     0.401000000
H    -4.097000000    -0.098000000    -0.112000000
H    -5.049000000     0.634000000     0.809000000
O    -3.447000000    -3.072000000    -6.575000000
H    -3.030000000    -2.360000000    -6.090000000
H    -3.929000000    -3.564000000    -5.910000000
O     1.634000000     4.751000000     0.515000000
H     2.308000000     4.193000000     0.127000000
H     2.020000000     5.057000000     1.336000000
O    -2.089000000    -0.986000000    -5.144000000
H    -1.400000000    -0.322000000    -5.126000000
H    -2.061000000    -1.384000000    -4.274000000
O    -2.319000000     0.298000000     6.522000000
H    -3.023000000    -0.290000000     6.796000000
H    -1.816000000     0.459000000     7.320000000
