158
-3038.39285
C    -0.509000000    -0.706000000    -1.250000000
H    -0.840000000    -1.112000000    -2.202000000
C     0.694000000     0.038000000    -1.186000000
H     1.421000000     0.216000000    -1.973000000
C     1.056000000     0.595000000     0.086000000
H     1.884000000     1.277000000     0.170000000
C     0.289000000     0.342000000     1.179000000
H     0.476000000     0.915000000     2.083000000
C    -0.911000000    -0.319000000     1.077000000
H    -1.608000000    -0.439000000     1.902000000
C    -1.335000000    -0.854000000    -0.115000000
C    -2.671000000    -1.522000000    -0.239000000
O    -3.170000000    -1.635000000    -1.333000000
O    -3.187000000    -1.905000000     0.773000000
O     3.281000000    -3.291000000    -1.815000000
H     3.246000000    -3.532000000    -2.741000000
H     3.670000000    -2.417000000    -1.810000000
O    -5.412000000    -4.038000000     2.112000000
H    -6.296000000    -4.318000000     1.871000000
H    -4.868000000    -4.297000000     1.368000000
O     5.220000000    -2.968000000     1.124000000
H     5.226000000    -2.901000000     2.079000000
H     4.456000000    -2.458000000     0.854000000
O     0.491000000    -0.966000000    -4.664000000
H     0.092000000    -0.802000000    -5.519000000
H     0.732000000    -0.097000000    -4.342000000
O    -3.670000000     1.051000000    -4.229000000
H    -4.288000000     1.392000000    -4.875000000
H    -2.999000000     0.608000000    -4.750000000
O    -2.338000000     0.974000000     4.273000000
H    -1.411000000     0.897000000     4.495000000
H    -2.780000000     0.382000000     4.882000000
O     1.682000000     2.707000000     3.502000000
H     0.745000000     2.900000000     3.489000000
H     1.772000000     1.994000000     4.134000000
O    -0.231000000    -4.805000000     1.059000000
H    -0.230000000    -3.904000000     0.737000000
H     0.562000000    -5.193000000     0.688000000
O    -0.444000000    -3.503000000    -4.726000000
H    -0.200000000    -2.580000000    -4.786000000
H    -1.363000000    -3.492000000    -4.458000000
O    -7.503000000    -1.813000000    -3.852000000
H    -7.018000000    -2.160000000    -3.103000000
H    -7.965000000    -1.050000000    -3.506000000
O     0.287000000     5.192000000     0.219000000
H     0.913000000     4.856000000    -0.422000000
H     0.747000000     5.914000000     0.648000000
O    -3.203000000     3.557000000     3.782000000
H    -2.608000000     3.840000000     3.088000000
H    -2.919000000     2.668000000     3.994000000
O     6.176000000     4.972000000     0.040000000
H     6.133000000     5.300000000    -0.858000000
H     5.261000000     4.884000000     0.307000000
O    -6.282000000    -4.993000000    -2.545000000
H    -6.515000000    -5.595000000    -1.838000000
H    -5.983000000    -4.202000000    -2.097000000
O    -4.330000000     0.709000000    -1.646000000
H    -4.126000000    -0.226000000    -1.629000000
H    -3.976000000     1.016000000    -2.481000000
O     0.830000000    -5.660000000    -3.695000000
H     0.432000000    -4.826000000    -3.947000000
H     1.573000000    -5.759000000    -4.290000000
O    -4.101000000    -0.677000000     5.598000000
H    -3.987000000    -1.416000000     6.196000000
H    -5.022000000    -0.718000000     5.340000000
O     4.118000000     1.630000000     2.287000000
H     4.669000000     2.364000000     2.558000000
H     3.223000000     1.928000000     2.454000000
O    -6.676000000     0.536000000    -0.418000000
H    -7.089000000     1.304000000    -0.814000000
H    -5.831000000     0.462000000    -0.862000000
O    -2.277000000    -5.752000000    -1.702000000
H    -2.421000000    -5.343000000    -2.556000000
H    -1.861000000    -6.589000000    -1.906000000
O    -0.573000000     3.309000000     2.070000000
H    -0.188000000     3.938000000     1.460000000
H    -0.513000000     2.468000000     1.617000000
O    -5.318000000    -1.385000000     2.215000000
H    -4.529000000    -1.408000000     1.673000000
H    -5.502000000    -2.304000000     2.410000000
O     3.387000000     6.784000000     0.651000000
H     2.736000000     7.364000000     1.046000000
H     3.448000000     6.045000000     1.257000000
O    -0.372000000    -4.218000000     3.808000000
H    -1.109000000    -3.610000000     3.869000000
H    -0.448000000    -4.600000000     2.934000000
O     1.904000000     4.429000000    -1.696000000
H     2.779000000     4.045000000    -1.644000000
H     1.458000000     3.918000000    -2.371000000
O     4.436000000     3.450000000    -1.923000000
H     4.633000000     2.692000000    -1.373000000
H     5.185000000     3.518000000    -2.515000000
O    -5.917000000    -2.348000000    -1.341000000
H    -6.450000000    -1.903000000    -0.682000000
H    -5.014000000    -2.179000000    -1.072000000
O    -2.483000000     4.059000000    -2.824000000
H    -1.928000000     3.437000000    -2.352000000
H    -3.375000000     3.831000000    -2.562000000
O     3.187000000     4.863000000     2.492000000
H     2.483000000     4.218000000     2.426000000
H     3.726000000     4.556000000     3.220000000
O     6.197000000    -0.045000000     2.306000000
H     5.723000000     0.704000000     2.667000000
H     5.590000000    -0.779000000     2.396000000
O     2.094000000     0.966000000     6.470000000
H     1.519000000     0.542000000     5.833000000
H     2.259000000     0.291000000     7.129000000
O     3.238000000    -1.644000000    -4.363000000
H     3.606000000    -1.086000000    -3.678000000
H     2.339000000    -1.331000000    -4.469000000
O     0.311000000     0.066000000     4.710000000
H    -0.060000000    -0.600000000     5.289000000
H     0.881000000    -0.423000000     4.116000000
O     5.364000000     1.166000000    -0.336000000
H     6.250000000     0.830000000    -0.203000000
H     5.025000000     1.304000000     0.548000000
O     4.905000000     3.438000000     4.262000000
H     4.977000000     2.890000000     5.043000000
H     4.925000000     4.335000000     4.596000000
O    -3.636000000     1.906000000     0.856000000
H    -4.216000000     1.449000000     0.246000000
H    -4.044000000     1.782000000     1.713000000
O    -2.541000000    -2.457000000     3.401000000
H    -2.772000000    -1.589000000     3.734000000
H    -3.122000000    -2.587000000     2.651000000
O    -3.416000000    -4.797000000     0.539000000
H    -3.198000000    -5.194000000    -0.304000000
H    -3.431000000    -3.856000000     0.365000000
O     1.224000000     1.716000000    -4.060000000
H     0.814000000     2.504000000    -4.415000000
H     2.108000000     1.719000000    -4.428000000
O    -7.916000000    -1.613000000     2.728000000
H    -7.116000000    -1.187000000     2.422000000
H    -8.345000000    -1.921000000     1.930000000
O     3.481000000     1.988000000    -5.401000000
H     3.125000000     2.715000000    -5.910000000
H     4.250000000     1.703000000    -5.896000000
O    -2.123000000    -6.901000000     2.111000000
H    -2.378000000    -5.980000000     2.058000000
H    -1.829000000    -7.119000000     1.226000000
O    -5.212000000     1.570000000     3.072000000
H    -4.903000000     0.675000000     3.209000000
H    -5.425000000     1.887000000     3.950000000
O     2.184000000    -1.040000000     3.207000000
H     2.751000000    -1.759000000     3.487000000
H     2.174000000    -1.101000000     2.252000000
O     4.641000000    -0.816000000    -2.158000000
H     4.610000000     0.029000000    -1.710000000
H     5.574000000    -1.021000000    -2.221000000
O    -1.615000000     2.274000000    -0.778000000
H    -2.250000000     2.018000000    -0.109000000
H    -1.361000000     1.450000000    -1.195000000
O     2.718000000    -1.828000000     0.612000000
H     2.687000000    -2.606000000     0.055000000
H     1.922000000    -1.344000000     0.393000000
O    -2.916000000    -3.116000000    -3.942000000
H    -2.935000000    -2.597000000    -3.138000000
H    -3.830000000    -3.157000000    -4.222000000
