158
-3055.12331
C    -1.032000000    -0.351000000    -0.959000000
H    -1.724000000    -0.664000000    -1.735000000
C     0.260000000     0.006000000    -1.282000000
H     0.652000000     0.082000000    -2.293000000
C     1.144000000     0.311000000    -0.277000000
H     2.205000000     0.486000000    -0.553000000
C     0.728000000     0.399000000     1.061000000
H     1.355000000     0.651000000     1.913000000
C    -0.588000000     0.126000000     1.367000000
H    -0.888000000     0.154000000     2.411000000
C    -1.487000000    -0.325000000     0.362000000
C    -2.871000000    -0.792000000     0.713000000
O    -3.696000000    -1.248000000    -0.093000000
O    -3.296000000    -0.793000000     1.866000000
O     6.339000000     1.303000000    -1.087000000
H     6.737000000     0.436000000    -1.163000000
H     5.708000000     1.215000000    -0.373000000
O    -4.403000000     1.567000000    -2.716000000
H    -4.616000000     0.641000000    -2.829000000
H    -4.452000000     1.711000000    -1.771000000
O    -0.096000000     0.291000000    -4.859000000
H    -0.692000000     0.746000000    -5.453000000
H     0.339000000     0.992000000    -4.373000000
O    -0.952000000     3.279000000     2.534000000
H    -1.147000000     4.178000000     2.269000000
H    -1.680000000     2.764000000     2.187000000
O     0.268000000     4.592000000    -4.870000000
H     0.753000000     4.981000000    -4.141000000
H     0.307000000     3.650000000    -4.708000000
O     0.973000000    -4.353000000    -1.773000000
H     0.244000000    -3.878000000    -2.171000000
H     1.485000000    -3.677000000    -1.329000000
O    -2.676000000    -1.348000000    -4.861000000
H    -2.098000000    -0.604000000    -4.692000000
H    -3.387000000    -0.984000000    -5.388000000
O    -6.880000000    -1.991000000    -3.698000000
H    -7.094000000    -2.178000000    -2.784000000
H    -6.137000000    -1.388000000    -3.651000000
O     4.072000000     4.591000000     0.266000000
H     4.326000000     5.511000000     0.190000000
H     3.364000000     4.591000000     0.911000000
O    -5.731000000    -5.733000000     1.118000000
H    -6.566000000    -5.618000000     0.663000000
H    -5.129000000    -5.141000000     0.667000000
O    -5.964000000     0.394000000    -0.562000000
H    -5.235000000    -0.011000000    -0.090000000
H    -6.475000000     0.832000000     0.118000000
O     4.609000000     3.098000000    -4.747000000
H     4.391000000     3.722000000    -4.054000000
H     5.124000000     3.606000000    -5.373000000
O    -8.235000000     0.751000000    -2.366000000
H    -7.493000000     0.361000000    -1.904000000
H    -7.971000000     0.750000000    -3.286000000
O     3.022000000     2.415000000     3.501000000
H     3.560000000     2.893000000     4.133000000
H     2.154000000     2.379000000     3.905000000
O     5.877000000     0.305000000    -4.571000000
H     5.442000000     1.051000000    -4.158000000
H     6.756000000     0.623000000    -4.776000000
O    -2.971000000     2.398000000     4.962000000
H    -2.730000000     1.868000000     4.202000000
H    -3.886000000     2.174000000     5.130000000
O     1.564000000     3.750000000     1.415000000
H     1.648000000     3.380000000     0.536000000
H     0.865000000     3.239000000     1.823000000
O    -5.664000000    -0.029000000     3.372000000
H    -6.132000000    -0.800000000     3.692000000
H    -4.926000000    -0.385000000     2.878000000
O    -2.357000000    -2.224000000     3.811000000
H    -1.938000000    -1.614000000     4.418000000
H    -2.663000000    -1.673000000     3.091000000
O     3.963000000     2.665000000    -2.007000000
H     4.757000000     2.141000000    -2.112000000
H     4.124000000     3.190000000    -1.223000000
O     7.025000000     4.221000000     0.447000000
H     6.134000000     4.560000000     0.363000000
H     6.913000000     3.336000000     0.793000000
O    -1.508000000    -4.738000000     3.762000000
H    -1.611000000    -4.970000000     2.840000000
H    -1.368000000    -3.791000000     3.757000000
O    -4.438000000    -1.063000000    -2.751000000
H    -4.076000000    -1.177000000    -1.873000000
H    -3.735000000    -1.340000000    -3.339000000
O    -8.160000000    -0.041000000     1.315000000
H    -7.383000000    -0.597000000     1.358000000
H    -8.851000000    -0.563000000     1.723000000
O     1.373000000    -1.611000000     4.052000000
H     0.662000000    -1.203000000     4.548000000
H     1.382000000    -1.143000000     3.218000000
O    -6.027000000    -1.970000000     1.227000000
H    -6.138000000    -2.537000000     1.990000000
H    -5.177000000    -2.219000000     0.864000000
O     7.419000000    -1.097000000    -0.987000000
H     7.956000000    -1.371000000    -1.730000000
H     7.711000000    -1.651000000    -0.263000000
O     0.583000000     2.324000000     4.593000000
H    -0.052000000     2.542000000     3.911000000
H     0.195000000     2.664000000     5.400000000
O     3.806000000    -0.059000000     5.912000000
H     4.536000000    -0.669000000     6.017000000
H     3.582000000    -0.112000000     4.983000000
O    -7.730000000    -2.590000000    -0.796000000
H    -7.167000000    -2.277000000    -0.088000000
H    -8.620000000    -2.426000000    -0.484000000
O    -7.114000000    -1.984000000     4.458000000
H    -7.803000000    -2.353000000     5.010000000
H    -6.865000000    -2.700000000     3.874000000
O     1.652000000     2.435000000    -3.472000000
H     2.041000000     2.595000000    -4.332000000
H     2.393000000     2.461000000    -2.866000000
O     6.502000000    -4.130000000    -1.353000000
H     6.202000000    -5.018000000    -1.544000000
H     5.747000000    -3.575000000    -1.546000000
O    -1.348000000    -3.338000000    -2.993000000
H    -2.134000000    -3.871000000    -3.117000000
H    -1.523000000    -2.536000000    -3.485000000
O     4.791000000     1.541000000     1.299000000
H     3.987000000     1.564000000     1.818000000
H     5.341000000     2.227000000     1.679000000
O     4.547000000    -2.028000000    -4.352000000
H     5.083000000    -1.236000000    -4.383000000
H     4.628000000    -2.337000000    -3.450000000
O    -3.319000000     1.812000000     2.192000000
H    -3.387000000     0.859000000     2.140000000
H    -4.224000000     2.120000000     2.139000000
O    -0.729000000    -0.167000000     5.083000000
H    -0.260000000     0.667000000     5.125000000
H    -1.132000000    -0.259000000     5.946000000
O    -5.913000000    -4.003000000     3.063000000
H    -5.843000000    -4.802000000     2.540000000
H    -5.514000000    -4.231000000     3.903000000
O    -4.357000000    -4.095000000     5.194000000
H    -4.067000000    -3.953000000     6.095000000
H    -3.807000000    -3.511000000     4.671000000
O     2.207000000    -0.627000000    -6.324000000
H     1.418000000    -0.500000000    -5.798000000
H     2.512000000    -1.504000000    -6.091000000
O     1.674000000    -2.784000000     0.569000000
H     1.185000000    -2.204000000     1.152000000
H     2.470000000    -2.997000000     1.055000000
O    -5.801000000     2.083000000     4.923000000
H    -5.851000000     1.604000000     5.750000000
H    -5.729000000     1.401000000     4.255000000
O     4.552000000    -2.177000000    -1.527000000
H     3.947000000    -1.950000000    -0.822000000
H     5.357000000    -1.705000000    -1.313000000
O     4.399000000    -1.179000000     1.323000000
H     4.929000000    -1.284000000     2.113000000
H     4.722000000    -0.371000000     0.924000000
O    -0.156000000     3.053000000    -1.460000000
H     0.523000000     2.652000000    -2.001000000
H    -0.809000000     2.363000000    -1.344000000
O    -1.070000000    -5.313000000     1.034000000
H    -0.158000000    -5.171000000     0.783000000
H    -1.553000000    -5.289000000     0.208000000
O    -4.175000000    -4.001000000    -0.344000000
H    -4.162000000    -3.044000000    -0.330000000
H    -3.628000000    -4.237000000    -1.094000000
