158
-3057.72451
C    -0.778000000    -0.961000000    -0.706000000
H    -1.323000000    -1.512000000    -1.468000000
C     0.456000000    -0.508000000    -1.116000000
H     0.730000000    -0.704000000    -2.150000000
C     1.202000000     0.346000000    -0.309000000
H     2.114000000     0.832000000    -0.679000000
C     0.667000000     0.680000000     0.997000000
H     1.213000000     1.337000000     1.669000000
C    -0.604000000     0.202000000     1.411000000
H    -1.078000000     0.563000000     2.320000000
C    -1.328000000    -0.622000000     0.569000000
C    -2.759000000    -1.154000000     0.782000000
O    -3.431000000    -1.455000000    -0.211000000
O    -3.291000000    -0.876000000     1.886000000
O     4.093000000    -0.601000000     1.519000000
H     3.963000000    -1.168000000     0.758000000
H     3.436000000    -0.893000000     2.150000000
O     5.357000000     4.277000000    -4.724000000
H     5.448000000     3.500000000    -4.173000000
H     4.478000000     4.604000000    -4.534000000
O    -1.430000000     1.495000000    -2.373000000
H    -1.161000000     0.763000000    -1.818000000
H    -1.917000000     2.074000000    -1.787000000
O     0.863000000    -3.011000000    -5.616000000
H     0.822000000    -2.181000000    -6.091000000
H     1.729000000    -3.010000000    -5.207000000
O     1.075000000    -0.109000000    -5.756000000
H     1.985000000    -0.139000000    -6.053000000
H     0.990000000     0.742000000    -5.328000000
O     1.975000000     3.829000000     0.403000000
H     2.520000000     3.060000000     0.239000000
H     1.869000000     3.848000000     1.355000000
O    -1.951000000    -0.486000000    -5.212000000
H    -1.281000000     0.191000000    -5.300000000
H    -2.399000000    -0.275000000    -4.393000000
O     4.003000000    -2.137000000    -0.901000000
H     3.328000000    -2.779000000    -1.121000000
H     4.684000000    -2.646000000    -0.460000000
O    -3.532000000    -0.196000000    -2.670000000
H    -3.280000000     0.714000000    -2.512000000
H    -3.443000000    -0.621000000    -1.817000000
O    -6.009000000     0.912000000     4.479000000
H    -6.900000000     0.563000000     4.497000000
H    -5.997000000     1.575000000     5.170000000
O     5.849000000     4.661000000    -0.406000000
H     5.400000000     3.845000000    -0.627000000
H     6.153000000     4.532000000     0.492000000
O    -5.944000000    -1.466000000    -0.805000000
H    -5.018000000    -1.229000000    -0.755000000
H    -5.943000000    -2.372000000    -1.114000000
O     1.779000000     5.731000000    -1.572000000
H     2.603000000     6.164000000    -1.347000000
H     1.416000000     5.454000000    -0.731000000
O     3.488000000     2.073000000     2.879000000
H     3.998000000     1.407000000     2.419000000
H     4.072000000     2.390000000     3.568000000
O    -3.964000000     2.010000000     2.090000000
H    -3.909000000     1.088000000     1.841000000
H    -4.716000000     2.056000000     2.680000000
O    -5.595000000    -6.352000000     0.494000000
H    -4.958000000    -5.785000000     0.060000000
H    -6.423000000    -5.876000000     0.432000000
O    -3.359000000     0.619000000     4.899000000
H    -4.265000000     0.679000000     4.594000000
H    -3.026000000    -0.185000000     4.502000000
O     1.852000000     5.075000000     3.302000000
H     1.694000000     4.681000000     4.160000000
H     2.775000000     5.328000000     3.320000000
O     1.119000000    -2.834000000     1.592000000
H     0.619000000    -2.123000000     1.191000000
H     1.538000000    -2.431000000     2.353000000
O     1.466000000     1.028000000     4.208000000
H     2.169000000     1.448000000     3.713000000
H     0.967000000     1.755000000     4.580000000
O    -5.684000000    -3.145000000     2.221000000
H    -5.035000000    -3.732000000     1.834000000
H    -5.290000000    -2.276000000     2.157000000
O    -2.537000000    -4.488000000     3.977000000
H    -2.665000000    -4.648000000     4.912000000
H    -2.626000000    -5.350000000     3.572000000
O    -0.722000000     2.280000000     6.411000000
H    -1.215000000     1.461000000     6.378000000
H    -0.479000000     2.377000000     7.331000000
O     3.944000000    -0.258000000    -3.022000000
H     3.052000000     0.089000000    -3.021000000
H     3.956000000    -0.891000000    -2.304000000
O    -6.834000000     0.713000000    -2.420000000
H    -6.079000000     0.844000000    -2.993000000
H    -6.685000000    -0.144000000    -2.021000000
O    -8.776000000    -0.893000000    -0.404000000
H    -7.995000000    -1.315000000    -0.761000000
H    -9.480000000    -1.525000000    -0.556000000
O     2.331000000     4.944000000    -4.030000000
H     2.068000000     5.221000000    -3.152000000
H     1.656000000     5.302000000    -4.607000000
O    -0.724000000    -0.592000000     6.483000000
H    -1.599000000    -0.955000000     6.616000000
H    -0.557000000    -0.704000000     5.547000000
O    -0.578000000    -4.682000000    -2.363000000
H    -1.340000000    -4.995000000    -1.875000000
H    -0.946000000    -4.141000000    -3.061000000
O     7.286000000    -0.479000000     0.864000000
H     7.737000000    -0.171000000     1.650000000
H     6.370000000    -0.561000000     1.130000000
O     5.548000000     1.721000000    -3.664000000
H     6.211000000     1.470000000    -3.021000000
H     5.007000000     0.938000000    -3.768000000
O     4.826000000     1.850000000     0.039000000
H     4.374000000     1.009000000     0.105000000
H     5.691000000     1.687000000     0.416000000
O    -0.790000000     2.779000000    -4.699000000
H     0.166000000     2.774000000    -4.659000000
H    -1.066000000     2.345000000    -3.892000000
O    -1.698000000    -2.973000000    -4.279000000
H    -1.549000000    -2.080000000    -4.589000000
H    -1.147000000    -3.517000000    -4.842000000
O     2.100000000    -1.467000000     3.825000000
H     2.000000000    -0.520000000     3.921000000
H     2.012000000    -1.809000000     4.714000000
O    -6.010000000    -2.129000000     5.432000000
H    -6.734000000    -1.502000000     5.410000000
H    -5.231000000    -1.602000000     5.255000000
O    -2.875000000     2.839000000    -0.377000000
H    -3.593000000     3.429000000    -0.607000000
H    -3.032000000     2.616000000     0.541000000
O    -2.182000000    -1.736000000     3.999000000
H    -2.061000000    -2.683000000     3.927000000
H    -2.641000000    -1.492000000     3.196000000
O     3.561000000    -3.018000000    -4.534000000
H     3.297000000    -3.774000000    -4.011000000
H     4.411000000    -3.265000000    -4.899000000
O    -1.552000000    -5.008000000     0.597000000
H    -1.335000000    -5.693000000    -0.035000000
H    -0.951000000    -5.156000000     1.327000000
O    -6.511000000     0.412000000     1.173000000
H    -7.224000000     0.171000000     0.581000000
H    -5.894000000    -0.318000000     1.113000000
O     2.119000000     2.479000000    -5.138000000
H     2.605000000     2.395000000    -5.959000000
H     2.532000000     3.218000000    -4.691000000
O    -4.434000000    -2.517000000    -3.795000000
H    -4.303000000    -1.569000000    -3.786000000
H    -3.551000000    -2.882000000    -3.753000000
O    -0.971000000     4.016000000     3.761000000
H    -0.757000000     4.151000000     2.837000000
H    -1.586000000     3.283000000     3.760000000
O     1.557000000     4.033000000     5.820000000
H     0.717000000     3.593000000     5.688000000
H     1.323000000     4.900000000     6.150000000
O     1.800000000    -3.772000000    -0.916000000
H     1.082000000    -4.190000000    -1.391000000
H     1.401000000    -3.464000000    -0.102000000
O    -0.979000000     4.253000000     0.975000000
H    -1.606000000     3.810000000     0.403000000
H    -0.124000000     3.941000000     0.680000000
O    -4.080000000    -4.151000000     0.074000000
H    -3.880000000    -3.264000000    -0.227000000
H    -3.225000000    -4.569000000     0.171000000
