158
-3035.15552
C    -0.666000000    -1.038000000    -0.774000000
H    -1.114000000    -1.776000000    -1.434000000
C     0.474000000    -0.291000000    -1.157000000
H     0.925000000    -0.354000000    -2.144000000
C     1.058000000     0.572000000    -0.263000000
H     1.944000000     1.105000000    -0.654000000
C     0.457000000     0.818000000     0.942000000
H     0.892000000     1.408000000     1.745000000
C    -0.671000000     0.154000000     1.306000000
H    -1.144000000     0.400000000     2.253000000
C    -1.256000000    -0.818000000     0.481000000
C    -2.535000000    -1.554000000     0.815000000
O    -3.335000000    -1.727000000    -0.115000000
O    -2.860000000    -1.702000000     1.968000000
O     4.112000000    -0.905000000    -0.240000000
H     4.944000000    -1.371000000    -0.326000000
H     4.269000000    -0.262000000     0.452000000
O    -6.386000000    -4.779000000     2.951000000
H    -6.766000000    -4.568000000     2.098000000
H    -5.441000000    -4.781000000     2.798000000
O    -1.726000000     0.052000000    -4.203000000
H    -1.519000000     0.109000000    -5.136000000
H    -1.174000000     0.719000000    -3.794000000
O    -2.471000000     3.160000000     5.430000000
H    -2.065000000     3.822000000     5.990000000
H    -1.820000000     2.460000000     5.378000000
O     0.342000000     5.403000000     3.799000000
H    -0.343000000     5.080000000     3.213000000
H    -0.056000000     5.378000000     4.669000000
O    -0.319000000     2.426000000    -3.561000000
H     0.229000000     3.101000000    -3.162000000
H    -0.079000000     2.439000000    -4.488000000
O     0.048000000    -4.372000000     0.285000000
H    -0.165000000    -4.369000000    -0.649000000
H     0.773000000    -3.752000000     0.367000000
O    -1.931000000    -2.840000000    -4.161000000
H    -1.848000000    -1.890000000    -4.081000000
H    -2.662000000    -3.066000000    -3.587000000
O    -7.377000000    -1.010000000    -2.211000000
H    -6.655000000    -0.916000000    -1.589000000
H    -7.977000000    -1.625000000    -1.790000000
O     2.213000000     4.542000000     0.295000000
H     2.823000000     4.579000000    -0.442000000
H     2.744000000     4.237000000     1.031000000
O    -2.586000000     4.888000000     3.140000000
H    -2.818000000     4.734000000     2.225000000
H    -2.364000000     4.022000000     3.481000000
O     6.464000000     5.039000000     0.531000000
H     5.947000000     4.498000000    -0.066000000
H     7.247000000     4.519000000     0.709000000
O    -3.512000000     0.324000000    -2.012000000
H    -3.539000000    -0.444000000    -1.442000000
H    -2.879000000     0.095000000    -2.693000000
O     1.230000000     4.557000000    -2.588000000
H     2.134000000     4.279000000    -2.732000000
H     1.291000000     5.234000000    -1.914000000
O     1.934000000    -3.178000000    -3.923000000
H     2.250000000    -2.329000000    -3.614000000
H     2.305000000    -3.267000000    -4.801000000
O    -7.394000000     1.115000000     1.247000000
H    -6.663000000     0.539000000     1.023000000
H    -7.866000000     1.235000000     0.423000000
O     3.458000000     1.155000000     4.039000000
H     4.227000000     1.377000000     4.563000000
H     2.842000000     0.777000000     4.666000000
O    -3.660000000     3.789000000     0.923000000
H    -3.296000000     3.181000000     0.280000000
H    -4.538000000     3.986000000     0.596000000
O    -2.525000000    -5.088000000    -0.612000000
H    -1.730000000    -5.045000000    -1.142000000
H    -2.825000000    -5.993000000    -0.702000000
O    -1.020000000     0.809000000     5.730000000
H    -1.430000000     0.152000000     5.167000000
H    -1.618000000     0.894000000     6.473000000
O    -0.302000000     3.846000000     1.502000000
H     0.399000000     3.877000000     0.851000000
H    -1.073000000     3.565000000     1.009000000
O    -5.356000000    -1.057000000     3.609000000
H    -4.451000000    -1.285000000     3.393000000
H    -5.689000000    -0.629000000     2.820000000
O     0.732000000    -2.942000000     4.819000000
H    -0.173000000    -3.138000000     4.578000000
H     1.082000000    -2.466000000     4.066000000
O     4.035000000     4.600000000    -1.568000000
H     4.715000000     5.052000000    -2.068000000
H     4.353000000     3.700000000    -1.490000000
O     1.994000000     6.634000000     2.091000000
H     2.053000000     6.023000000     1.356000000
H     1.434000000     6.190000000     2.727000000
O     5.485000000     2.465000000    -0.592000000
H     5.228000000     1.766000000     0.010000000
H     6.247000000     2.115000000    -1.053000000
O    -3.591000000    -4.544000000     4.466000000
H    -3.590000000    -4.557000000     3.509000000
H    -3.749000000    -5.454000000     4.718000000
O    -5.824000000    -1.046000000     0.588000000
H    -6.214000000    -1.818000000     0.999000000
H    -4.940000000    -1.324000000     0.347000000
O     2.815000000     3.866000000     3.135000000
H     1.990000000     4.200000000     3.489000000
H     2.694000000     2.917000000     3.101000000
O     4.418000000    -2.408000000     2.971000000
H     3.657000000    -2.303000000     2.400000000
H     4.277000000    -1.778000000     3.677000000
O     3.233000000    -0.860000000    -2.848000000
H     3.554000000    -0.225000000    -3.489000000
H     3.600000000    -0.565000000    -2.015000000
O     1.708000000     1.224000000     6.451000000
H     0.832000000     1.037000000     6.114000000
H     2.190000000     0.406000000     6.334000000
O    -0.403000000    -4.688000000    -2.267000000
H    -0.529000000    -3.961000000    -2.877000000
H     0.132000000    -5.316000000    -2.752000000
O     4.753000000     0.704000000     1.727000000
H     5.499000000     0.228000000     2.092000000
H     4.110000000     0.721000000     2.436000000
O     5.548000000     3.512000000     2.938000000
H     4.966000000     4.121000000     2.483000000
H     5.056000000     3.245000000     3.714000000
O     2.526000000    -4.960000000    -2.005000000
H     3.306000000    -5.274000000    -2.464000000
H     1.981000000    -4.579000000    -2.694000000
O    -2.070000000    -1.698000000     4.496000000
H    -2.484000000    -2.451000000     4.919000000
H    -2.377000000    -1.733000000     3.590000000
O    -3.664000000    -4.321000000     1.846000000
H    -3.412000000    -4.721000000     1.014000000
H    -3.248000000    -3.459000000     1.833000000
O     2.458000000     0.388000000    -6.813000000
H     2.892000000     1.085000000    -6.320000000
H     3.143000000     0.033000000    -7.379000000
O     4.862000000     0.782000000    -4.591000000
H     5.227000000     1.638000000    -4.369000000
H     5.430000000     0.452000000    -5.287000000
O    -0.680000000    -5.603000000     2.828000000
H     0.244000000    -5.852000000     2.867000000
H    -0.722000000    -4.950000000     2.130000000
O    -5.586000000     1.070000000     5.439000000
H    -5.247000000     0.254000000     5.073000000
H    -5.980000000     0.814000000     6.273000000
O     2.215000000    -2.965000000     0.029000000
H     2.755000000    -2.200000000    -0.170000000
H     2.526000000    -3.641000000    -0.572000000
O     6.428000000    -1.859000000    -0.797000000
H     6.922000000    -1.075000000    -1.039000000
H     6.721000000    -2.526000000    -1.418000000
O    -5.782000000    -1.629000000    -4.238000000
H    -5.119000000    -1.969000000    -3.637000000
H    -6.515000000    -1.384000000    -3.673000000
O    -1.283000000     2.495000000    -0.857000000
H    -1.039000000     2.579000000    -1.779000000
H    -1.054000000     1.594000000    -0.630000000
O     1.995000000    -1.071000000     2.681000000
H     1.814000000    -1.244000000     1.758000000
H     1.374000000    -0.384000000     2.923000000
O    -4.008000000    -3.137000000    -2.425000000
H    -3.874000000    -2.820000000    -1.531000000
H    -4.208000000    -4.067000000    -2.321000000
