158
-3049.60019
C    -0.626000000    -1.181000000    -0.586000000
H    -1.163000000    -1.916000000    -1.181000000
C     0.461000000    -0.553000000    -1.154000000
H     0.837000000    -0.846000000    -2.131000000
C     0.990000000     0.524000000    -0.429000000
H     1.768000000     1.176000000    -0.940000000
C     0.437000000     0.917000000     0.756000000
H     0.678000000     1.849000000     1.261000000
C    -0.546000000     0.240000000     1.332000000
H    -1.011000000     0.671000000     2.215000000
C    -1.121000000    -0.844000000     0.645000000
C    -2.427000000    -1.511000000     1.220000000
O    -3.059000000    -2.369000000     0.654000000
O    -2.912000000    -0.978000000     2.182000000
O     5.002000000     2.838000000    -1.787000000
H     5.906000000     2.529000000    -1.743000000
H     4.612000000     2.560000000    -0.959000000
O    -1.704000000    -6.911000000     2.400000000
H    -0.864000000    -7.034000000     1.957000000
H    -1.875000000    -5.972000000     2.333000000
O    -0.860000000     2.877000000    -0.765000000
H    -0.338000000     2.097000000    -0.577000000
H    -1.755000000     2.550000000    -0.855000000
O    -0.753000000     4.816000000    -4.118000000
H     0.012000000     4.634000000    -3.572000000
H    -0.870000000     4.020000000    -4.637000000
O     1.263000000     0.153000000    -4.637000000
H     1.454000000     0.327000000    -5.559000000
H     2.123000000     0.038000000    -4.232000000
O     3.353000000     5.660000000    -0.831000000
H     3.593000000     5.798000000     0.085000000
H     4.139000000     5.287000000    -1.231000000
O    -2.601000000     3.963000000     1.841000000
H    -2.344000000     4.538000000     1.121000000
H    -2.727000000     3.107000000     1.431000000
O     4.141000000    -2.917000000    -2.702000000
H     3.394000000    -2.728000000    -3.270000000
H     3.921000000    -2.500000000    -1.869000000
O    -0.657000000     1.584000000    -3.650000000
H    -0.473000000     1.967000000    -2.792000000
H     0.174000000     1.192000000    -3.920000000
O    -5.788000000     2.247000000     3.900000000
H    -5.166000000     1.527000000     4.010000000
H    -6.484000000     2.061000000     4.529000000
O     4.246000000     4.646000000    -4.066000000
H     4.912000000     5.026000000    -4.638000000
H     4.738000000     4.091000000    -3.461000000
O    -3.939000000    -7.063000000     0.544000000
H    -3.643000000    -6.373000000    -0.050000000
H    -3.238000000    -7.140000000     1.191000000
O    -4.329000000    -0.938000000    -1.741000000
H    -3.924000000    -1.117000000    -0.892000000
H    -5.270000000    -0.956000000    -1.567000000
O     6.281000000     3.775000000     1.143000000
H     5.440000000     3.364000000     0.944000000
H     6.130000000     4.242000000     1.965000000
O    -5.696000000     0.840000000     0.762000000
H    -5.775000000    -0.061000000     1.075000000
H    -5.979000000     1.377000000     1.502000000
O    -4.926000000    -2.013000000     5.526000000
H    -4.826000000    -2.377000000     6.405000000
H    -5.801000000    -2.287000000     5.251000000
O     0.320000000     0.840000000     6.834000000
H    -0.390000000     0.279000000     7.146000000
H    -0.090000000     1.399000000     6.174000000
O     3.551000000     0.437000000     2.895000000
H     4.406000000     0.622000000     3.283000000
H     2.964000000     1.081000000     3.290000000
O    -1.542000000     1.795000000     5.109000000
H    -1.791000000     2.657000000     4.776000000
H    -2.334000000     1.265000000     5.017000000
O     1.297000000     4.252000000     1.013000000
H     2.057000000     4.799000000     1.212000000
H     0.698000000     4.399000000     1.745000000
O    -3.530000000     0.192000000     4.345000000
H    -3.954000000    -0.554000000     4.768000000
H    -3.252000000    -0.143000000     3.492000000
O    -0.407000000    -4.532000000     2.929000000
H    -1.254000000    -4.095000000     3.011000000
H     0.218000000    -3.917000000     3.313000000
O     4.018000000     0.584000000    -3.493000000
H     4.640000000    -0.055000000    -3.145000000
H     4.153000000     1.365000000    -2.957000000
O    -5.790000000    -4.475000000     0.424000000
H    -6.554000000    -4.364000000     0.990000000
H    -5.485000000    -5.364000000     0.604000000
O    -3.370000000     3.783000000     4.341000000
H    -4.275000000     3.489000000     4.245000000
H    -3.078000000     3.957000000     3.446000000
O    -3.289000000     0.396000000    -4.199000000
H    -3.644000000    -0.095000000    -3.458000000
H    -2.347000000     0.430000000    -4.035000000
O    -6.917000000    -1.375000000    -1.098000000
H    -6.524000000    -2.162000000    -1.475000000
H    -7.373000000    -1.686000000    -0.316000000
O     2.277000000    -1.899000000     2.574000000
H     2.670000000    -1.035000000     2.702000000
H     1.339000000    -1.756000000     2.702000000
O    -5.458000000    -1.859000000     1.642000000
H    -4.601000000    -1.630000000     2.002000000
H    -5.280000000    -2.582000000     1.040000000
O     2.006000000     2.315000000     4.107000000
H     1.463000000     2.749000000     3.449000000
H     2.024000000     2.927000000     4.843000000
O     2.416000000    -5.011000000    -1.450000000
H     2.478000000    -4.393000000    -2.179000000
H     1.749000000    -5.640000000    -1.725000000
O     4.555000000     1.173000000    -6.012000000
H     4.223000000     0.890000000    -5.160000000
H     5.502000000     1.245000000    -5.888000000
O     1.906000000     4.181000000    -2.810000000
H     2.632000000     4.654000000    -3.217000000
H     2.066000000     4.259000000    -1.870000000
O     2.752000000     3.176000000    -5.861000000
H     3.021000000     3.669000000    -5.086000000
H     3.472000000     2.565000000    -6.019000000
O     1.935000000    -2.740000000    -4.126000000
H     2.108000000    -3.563000000    -4.582000000
H     0.981000000    -2.705000000    -4.050000000
O     3.874000000     2.306000000     0.972000000
H     3.866000000     1.496000000     1.481000000
H     2.952000000     2.553000000     0.899000000
O    -0.237000000     4.359000000     3.279000000
H    -1.078000000     4.053000000     2.940000000
H    -0.431000000     5.213000000     3.665000000
O    -3.077000000     1.647000000     0.324000000
H    -4.013000000     1.485000000     0.439000000
H    -2.653000000     0.869000000     0.686000000
O    -5.677000000    -3.785000000    -2.514000000
H    -5.997000000    -4.559000000    -2.977000000
H    -5.186000000    -4.136000000    -1.771000000
O     0.093000000    -2.250000000     4.358000000
H    -0.338000000    -1.422000000     4.568000000
H     0.702000000    -2.393000000     5.083000000
O    -3.331000000    -4.317000000     2.765000000
H    -3.447000000    -3.957000000     1.886000000
H    -3.170000000    -3.552000000     3.318000000
O     5.960000000    -0.567000000    -1.744000000
H     5.252000000    -0.579000000    -1.100000000
H     6.759000000    -0.505000000    -1.220000000
O    -1.574000000    -4.446000000    -3.109000000
H    -1.838000000    -3.551000000    -3.319000000
H    -1.054000000    -4.726000000    -3.862000000
O    -0.919000000    -1.539000000    -4.315000000
H    -1.352000000    -1.766000000    -5.138000000
H    -0.208000000    -0.952000000    -4.573000000
O     3.087000000    -2.740000000    -0.167000000
H     2.930000000    -3.649000000    -0.421000000
H     2.278000000    -2.470000000     0.268000000
O    -1.121000000     5.414000000    -0.472000000
H    -0.397000000     5.540000000     0.141000000
H    -1.007000000     4.520000000    -0.796000000
O    -0.031000000    -6.434000000    -2.303000000
H    -0.448000000    -7.292000000    -2.219000000
H    -0.760000000    -5.824000000    -2.422000000
O    -2.718000000    -4.848000000    -0.621000000
H    -2.878000000    -3.967000000    -0.281000000
H    -2.389000000    -4.706000000    -1.509000000
