158
-3033.76944
C    -0.515000000     0.684000000    -1.156000000
H    -0.760000000     1.101000000    -2.130000000
C     0.879000000     0.372000000    -0.919000000
H     1.641000000     0.752000000    -1.595000000
C     1.257000000    -0.328000000     0.193000000
H     2.328000000    -0.526000000     0.442000000
C     0.223000000    -0.650000000     1.099000000
H     0.405000000    -1.237000000     1.996000000
C    -1.166000000    -0.260000000     0.900000000
H    -1.890000000    -0.488000000     1.678000000
C    -1.577000000     0.338000000    -0.277000000
C    -2.995000000     0.739000000    -0.534000000
O    -3.297000000     1.459000000    -1.515000000
O    -3.896000000     0.279000000     0.164000000
O     7.522000000     0.346000000    -2.105000000
H     8.369000000     0.555000000    -1.712000000
H     6.950000000     0.164000000    -1.359000000
O     6.156000000    -0.523000000     0.068000000
H     6.732000000    -0.414000000     0.825000000
H     5.295000000    -0.702000000     0.446000000
O     4.873000000    -0.720000000    -4.134000000
H     5.788000000    -0.450000000    -4.214000000
H     4.664000000    -0.588000000    -3.210000000
O     2.753000000    -0.945000000    -5.638000000
H     3.467000000    -0.696000000    -5.052000000
H     1.975000000    -0.541000000    -5.254000000
O     1.498000000     3.406000000     3.210000000
H     2.368000000     3.007000000     3.191000000
H     1.297000000     3.499000000     4.141000000
O     6.292000000    -3.858000000     2.139000000
H     6.902000000    -3.382000000     1.576000000
H     6.133000000    -4.681000000     1.678000000
O     1.191000000     2.594000000    -4.430000000
H     2.080000000     2.367000000    -4.156000000
H     1.304000000     3.338000000    -5.021000000
O     6.451000000    -2.836000000    -1.948000000
H     6.217000000    -2.141000000    -1.332000000
H     5.642000000    -3.333000000    -2.066000000
O    -4.581000000     3.735000000    -1.181000000
H    -5.504000000     3.538000000    -1.022000000
H    -4.176000000     2.880000000    -1.328000000
O    -2.547000000    -1.403000000     4.522000000
H    -3.253000000    -0.757000000     4.503000000
H    -2.847000000    -2.101000000     3.939000000
O    -0.409000000     0.653000000     4.647000000
H    -0.179000000     0.672000000     5.576000000
H    -1.266000000     0.228000000     4.621000000
O    -1.712000000    -4.502000000     2.154000000
H    -1.045000000    -4.796000000     1.533000000
H    -2.253000000    -3.892000000     1.652000000
O    -8.431000000     2.009000000    -1.479000000
H    -7.692000000     1.406000000    -1.400000000
H    -8.502000000     2.180000000    -2.418000000
O    -5.918000000     1.399000000    -2.876000000
H    -5.115000000     1.317000000    -2.362000000
H    -5.848000000     0.715000000    -3.542000000
O     3.932000000     2.524000000    -3.562000000
H     4.044000000     2.792000000    -2.650000000
H     4.445000000     3.159000000    -4.062000000
O    -8.305000000    -1.638000000     2.198000000
H    -7.880000000    -0.780000000     2.214000000
H    -8.402000000    -1.874000000     3.120000000
O    -3.855000000    -4.179000000     3.908000000
H    -3.104000000    -4.277000000     3.322000000
H    -4.245000000    -5.052000000     3.945000000
O     0.473000000    -2.399000000    -2.822000000
H     0.341000000    -1.750000000    -3.514000000
H     0.557000000    -1.882000000    -2.021000000
O    -6.287000000    -0.777000000    -0.464000000
H    -6.679000000    -0.459000000     0.349000000
H    -5.365000000    -0.527000000    -0.399000000
O     1.000000000    -5.440000000     3.577000000
H     0.402000000    -5.572000000     2.841000000
H     1.872000000    -5.454000000     3.182000000
O    -3.501000000    -2.233000000     0.973000000
H    -2.917000000    -2.177000000     0.216000000
H    -3.898000000    -1.364000000     1.033000000
O    -4.513000000     1.687000000     2.350000000
H    -3.621000000     1.863000000     2.650000000
H    -4.407000000     1.056000000     1.638000000
O     3.334000000    -4.959000000    -2.613000000
H     3.283000000    -4.661000000    -3.522000000
H     3.677000000    -4.205000000    -2.133000000
O    -1.197000000     3.824000000    -3.931000000
H    -0.840000000     2.936000000    -3.934000000
H    -1.161000000     4.094000000    -3.014000000
O     3.638000000     3.100000000    -1.018000000
H     4.002000000     3.694000000    -0.361000000
H     2.690000000     3.174000000    -0.909000000
O     0.552000000    -3.957000000     5.709000000
H    -0.037000000    -3.203000000     5.710000000
H     0.482000000    -4.316000000     4.825000000
O    -3.498000000     2.033000000    -6.322000000
H    -2.854000000     1.684000000    -6.939000000
H    -3.160000000     1.790000000    -5.460000000
O    -4.105000000     4.412000000    -3.968000000
H    -3.295000000     3.981000000    -4.239000000
H    -4.152000000     4.263000000    -3.023000000
O     2.598000000    -0.469000000     3.960000000
H     1.666000000    -0.349000000     3.780000000
H     2.949000000     0.420000000     4.015000000
O     3.643000000    -5.437000000     2.906000000
H     4.028000000    -4.563000000     2.841000000
H     4.289000000    -6.014000000     2.497000000
O     4.157000000     2.229000000     3.753000000
H     4.066000000     2.993000000     4.323000000
H     5.095000000     2.180000000     3.565000000
O    -4.133000000     1.094000000     4.910000000
H    -3.918000000     1.970000000     5.231000000
H    -4.455000000     1.238000000     4.020000000
O     0.440000000    -0.088000000    -4.564000000
H    -0.463000000    -0.238000000    -4.845000000
H     0.480000000     0.850000000    -4.378000000
O    -3.693000000     6.150000000    -0.488000000
H    -4.448000000     6.700000000    -0.697000000
H    -3.879000000     5.314000000    -0.915000000
O     4.079000000    -2.645000000     4.528000000
H     4.705000000    -2.467000000     5.230000000
H     3.519000000    -1.869000000     4.503000000
O    -2.461000000     0.808000000    -3.876000000
H    -2.944000000     1.100000000    -3.103000000
H    -2.706000000    -0.112000000    -3.977000000
O     3.705000000    -2.668000000    -0.948000000
H     3.485000000    -2.737000000    -0.019000000
H     3.633000000    -1.733000000    -1.143000000
O    -2.319000000    -3.099000000    -1.423000000
H    -2.651000000    -3.985000000    -1.278000000
H    -1.461000000    -3.228000000    -1.828000000
O    -1.994000000     2.010000000     2.831000000
H    -1.191000000     1.555000000     3.083000000
H    -1.829000000     2.927000000     3.051000000
O     0.795000000     3.108000000     0.260000000
H     0.465000000     2.210000000     0.227000000
H     1.044000000     3.238000000     1.175000000
O     4.158000000    -1.798000000     1.716000000
H     4.947000000    -2.319000000     1.866000000
H     3.908000000    -1.487000000     2.585000000
O    -3.175000000    -1.758000000    -3.678000000
H    -3.352000000    -1.945000000    -2.756000000
H    -3.374000000    -2.577000000    -4.131000000
O     0.578000000    -5.142000000     0.695000000
H     1.528000000    -5.250000000     0.657000000
H     0.254000000    -5.593000000    -0.084000000
O    -5.418000000    -4.166000000     0.919000000
H    -6.009000000    -3.777000000     0.275000000
H    -4.603000000    -3.672000000     0.826000000
O     4.069000000     0.354000000    -1.670000000
H     3.879000000     0.978000000    -2.370000000
H     4.561000000     0.861000000    -1.024000000
O    -1.255000000     3.968000000    -1.138000000
H    -1.821000000     3.198000000    -1.187000000
H    -0.468000000     3.659000000    -0.689000000
O    -6.439000000    -3.257000000    -1.773000000
H    -6.230000000    -2.449000000    -1.303000000
H    -7.275000000    -3.075000000    -2.202000000
O    -7.360000000     0.929000000     1.741000000
H    -6.548000000     1.319000000     2.066000000
H    -8.050000000     1.353000000     2.252000000
