158
-3038.61013
C    -0.984000000    -0.041000000    -1.112000000
H    -1.782000000     0.114000000    -1.834000000
C     0.198000000     0.662000000    -1.101000000
H     0.498000000     1.254000000    -1.961000000
C     1.057000000     0.629000000    -0.014000000
H     2.099000000     0.965000000    -0.100000000
C     0.765000000    -0.126000000     1.072000000
H     1.363000000    -0.136000000     1.979000000
C    -0.433000000    -0.894000000     1.101000000
H    -0.617000000    -1.558000000     1.941000000
C    -1.263000000    -0.844000000    -0.021000000
C    -2.606000000    -1.583000000     0.047000000
O    -3.524000000    -1.170000000    -0.590000000
O    -2.676000000    -2.552000000     0.706000000
O     7.752000000     3.646000000    -0.910000000
H     7.105000000     3.125000000    -0.434000000
H     8.597000000     3.300000000    -0.623000000
O     0.279000000    -0.393000000    -5.025000000
H     1.115000000     0.008000000    -4.788000000
H     0.454000000    -0.842000000    -5.852000000
O    -2.906000000    -1.357000000     4.954000000
H    -3.424000000    -1.420000000     4.152000000
H    -2.270000000    -0.664000000     4.775000000
O     1.625000000     3.950000000    -1.243000000
H     2.372000000     3.858000000    -0.651000000
H     2.001000000     4.305000000    -2.048000000
O     4.649000000    -0.775000000    -2.098000000
H     4.396000000    -1.166000000    -1.262000000
H     5.491000000    -0.355000000    -1.922000000
O    -5.974000000    -0.723000000    -0.914000000
H    -6.468000000    -1.506000000    -0.673000000
H    -5.078000000    -0.908000000    -0.631000000
O    -3.336000000    -4.851000000    -2.923000000
H    -2.455000000    -4.478000000    -2.888000000
H    -3.599000000    -4.757000000    -3.839000000
O     0.233000000     0.501000000     5.812000000
H    -0.442000000     0.429000000     5.137000000
H     0.307000000     1.441000000     5.978000000
O    -3.496000000    -5.271000000     3.085000000
H    -2.998000000    -6.076000000     3.229000000
H    -4.360000000    -5.571000000     2.803000000
O     2.913000000     2.912000000     3.402000000
H     2.832000000     2.009000000     3.708000000
H     3.771000000     3.197000000     3.716000000
O     4.421000000     0.286000000     2.020000000
H     4.394000000    -0.397000000     1.350000000
H     3.665000000     0.105000000     2.578000000
O    -7.678000000    -3.913000000    -1.165000000
H    -6.762000000    -3.660000000    -1.281000000
H    -8.159000000    -3.361000000    -1.781000000
O     5.960000000     1.037000000     4.234000000
H     5.539000000     0.562000000     3.517000000
H     5.542000000     1.898000000     4.229000000
O     3.774000000     4.114000000     1.062000000
H     3.324000000     3.701000000     1.799000000
H     4.431000000     3.473000000     0.793000000
O    -0.488000000     5.611000000    -1.795000000
H    -1.372000000     5.292000000    -1.981000000
H    -0.011000000     4.835000000    -1.501000000
O    -1.514000000    -2.552000000    -4.322000000
H    -2.209000000    -2.015000000    -3.940000000
H    -0.703000000    -2.123000000    -4.050000000
O    -3.346000000     3.964000000    -1.285000000
H    -3.642000000     3.055000000    -1.313000000
H    -3.870000000     4.366000000    -0.592000000
O    -6.621000000    -2.892000000     4.722000000
H    -6.424000000    -3.600000000     5.336000000
H    -5.852000000    -2.848000000     4.153000000
O     3.536000000    -1.906000000     0.434000000
H     3.885000000    -2.795000000     0.366000000
H     2.627000000    -2.026000000     0.708000000
O    -4.848000000    -3.572000000    -1.105000000
H    -4.242000000    -4.115000000    -1.608000000
H    -4.283000000    -2.965000000    -0.625000000
O    -4.392000000    -2.854000000     2.871000000
H    -3.994000000    -3.686000000     3.127000000
H    -4.083000000    -2.706000000     1.977000000
O     5.845000000     1.890000000     0.398000000
H     6.412000000     1.158000000     0.153000000
H     5.234000000     1.517000000     1.034000000
O     2.707000000     0.390000000     4.506000000
H     3.332000000    -0.123000000     5.018000000
H     1.860000000     0.214000000     4.914000000
O    -4.287000000     1.448000000    -0.781000000
H    -3.672000000     0.716000000    -0.816000000
H    -5.127000000     1.044000000    -0.562000000
O    -6.988000000     0.303000000    -3.401000000
H    -6.228000000     0.004000000    -3.901000000
H    -6.710000000     0.246000000    -2.487000000
O    -6.838000000     1.761000000     0.868000000
H    -7.623000000     2.095000000     1.303000000
H    -6.674000000     0.916000000     1.287000000
O     0.029000000    -2.809000000     5.130000000
H    -0.485000000    -2.490000000     5.872000000
H    -0.606000000    -2.899000000     4.420000000
O     4.813000000     6.634000000     0.028000000
H     4.267000000     6.904000000    -0.711000000
H     4.247000000     6.064000000     0.548000000
O     2.912000000     0.094000000    -4.188000000
H     3.421000000     0.781000000    -4.617000000
H     3.377000000    -0.074000000    -3.369000000
O    -1.217000000     1.049000000     3.811000000
H    -1.234000000     1.055000000     2.854000000
H    -0.859000000     1.903000000     4.050000000
O    -0.688000000     1.948000000    -5.630000000
H    -0.389000000     1.066000000    -5.407000000
H    -1.642000000     1.897000000    -5.580000000
O     1.051000000     4.960000000     4.093000000
H     1.811000000     4.443000000     3.825000000
H     1.421000000     5.698000000     4.577000000
O    -3.243000000     0.850000000    -5.662000000
H    -3.459000000     0.133000000    -5.066000000
H    -4.016000000     0.939000000    -6.220000000
O    -1.242000000    -4.376000000     1.664000000
H    -1.731000000    -3.649000000     1.277000000
H    -1.814000000    -4.708000000     2.356000000
O    -6.325000000    -0.508000000     2.287000000
H    -7.139000000    -0.610000000     2.780000000
H    -5.693000000    -1.056000000     2.753000000
O     2.267000000     4.866000000    -3.725000000
H     1.663000000     5.328000000    -4.307000000
H     2.651000000     4.182000000    -4.273000000
O    -0.316000000    -4.035000000    -1.056000000
H    -1.038000000    -3.733000000    -0.504000000
H     0.448000000    -4.018000000    -0.480000000
O     7.393000000    -0.387000000    -0.836000000
H     7.934000000    -0.015000000    -1.533000000
H     7.427000000    -1.332000000    -0.985000000
O    -3.809000000     1.731000000     2.160000000
H    -4.239000000     1.172000000     1.512000000
H    -2.994000000     2.003000000     1.739000000
O     5.375000000    -2.242000000    -4.262000000
H     5.111000000    -1.792000000    -3.460000000
H     5.167000000    -3.162000000    -4.100000000
O    -1.162000000     2.261000000     1.041000000
H    -1.232000000     2.821000000     0.267000000
H    -0.341000000     1.784000000     0.918000000
O     1.730000000    -4.153000000     1.093000000
H     1.707000000    -3.873000000     2.007000000
H     1.809000000    -5.106000000     1.136000000
O     1.005000000    -6.796000000     1.249000000
H     0.320000000    -6.159000000     1.045000000
H     0.625000000    -7.641000000     1.007000000
O     1.820000000    -2.044000000    -2.433000000
H     2.052000000    -1.482000000    -3.172000000
H     1.257000000    -1.498000000    -1.884000000
O     1.916000000     3.207000000    -5.971000000
H     2.066000000     2.522000000    -6.621000000
H     0.978000000     3.157000000    -5.783000000
O    -0.268000000     5.720000000     1.487000000
H     0.121000000     5.592000000     0.622000000
H     0.363000000     5.334000000     2.094000000
O    -5.682000000    -5.463000000     0.932000000
H    -5.415000000    -4.637000000     0.528000000
H    -5.350000000    -6.138000000     0.341000000
O    -3.690000000    -1.224000000    -3.209000000
H    -4.409000000    -1.855000000    -3.229000000
H    -3.550000000    -1.050000000    -2.278000000
