158
-3054.08412
C    -0.787000000    -0.106000000    -1.221000000
H    -1.252000000    -0.082000000    -2.203000000
C     0.591000000     0.260000000    -1.118000000
H     1.311000000     0.396000000    -1.921000000
C     1.177000000     0.305000000     0.143000000
H     2.262000000     0.583000000     0.243000000
C     0.457000000    -0.062000000     1.254000000
H     0.821000000     0.114000000     2.263000000
C    -0.860000000    -0.418000000     1.139000000
H    -1.373000000    -0.739000000     2.042000000
C    -1.530000000    -0.334000000    -0.056000000
C    -3.007000000    -0.770000000    -0.231000000
O    -3.549000000    -0.851000000    -1.322000000
O    -3.623000000    -0.848000000     0.816000000
O     6.313000000     4.603000000    -1.007000000
H     5.507000000     4.089000000    -1.057000000
H     6.984000000     3.972000000    -0.746000000
O     3.400000000     3.746000000    -4.384000000
H     2.889000000     3.987000000    -5.157000000
H     4.310000000     3.883000000    -4.647000000
O     1.081000000    -0.841000000    -4.680000000
H     1.540000000    -0.179000000    -4.163000000
H     1.564000000    -0.877000000    -5.506000000
O    -3.216000000     0.110000000     5.604000000
H    -2.602000000    -0.486000000     6.033000000
H    -3.510000000    -0.368000000     4.828000000
O     1.476000000     4.618000000     0.154000000
H     2.222000000     4.268000000     0.640000000
H     1.784000000     4.675000000    -0.751000000
O     4.560000000    -0.212000000    -1.644000000
H     4.220000000    -1.105000000    -1.587000000
H     4.197000000     0.131000000    -2.460000000
O    -6.080000000    -0.717000000    -0.338000000
H    -6.208000000    -0.833000000     0.604000000
H    -5.133000000    -0.631000000    -0.442000000
O    -4.183000000    -4.307000000    -2.311000000
H    -3.859000000    -3.692000000    -2.969000000
H    -4.833000000    -3.808000000    -1.816000000
O     1.485000000     1.397000000     7.315000000
H     1.036000000     1.132000000     6.513000000
H     1.331000000     2.340000000     7.375000000
O    -3.053000000    -4.039000000     3.653000000
H    -2.121000000    -4.063000000     3.865000000
H    -3.254000000    -4.926000000     3.354000000
O     2.107000000     2.865000000     3.948000000
H     2.970000000     2.637000000     3.602000000
H     2.143000000     3.813000000     4.076000000
O     4.002000000     1.273000000     2.966000000
H     3.314000000     0.877000000     2.432000000
H     4.428000000     0.532000000     3.397000000
O    -6.541000000    -2.912000000    -1.961000000
H    -6.287000000    -2.214000000    -1.357000000
H    -6.395000000    -2.540000000    -2.831000000
O     2.026000000     5.177000000    -2.342000000
H     2.396000000     4.567000000    -2.980000000
H     1.196000000     5.455000000    -2.729000000
O     6.702000000     1.722000000     2.190000000
H     7.099000000     2.385000000     2.755000000
H     5.872000000     1.510000000     2.617000000
O     3.856000000     4.110000000     1.060000000
H     4.054000000     4.091000000     1.996000000
H     4.359000000     3.382000000     0.694000000
O    -0.675000000    -2.866000000    -4.179000000
H    -1.557000000    -2.625000000    -3.894000000
H    -0.216000000    -2.030000000    -4.269000000
O    -5.945000000    -1.626000000    -4.625000000
H    -5.732000000    -2.407000000    -5.137000000
H    -6.758000000    -1.300000000    -5.012000000
O    -3.720000000     2.360000000    -0.843000000
H    -3.749000000     1.483000000    -1.226000000
H    -3.826000000     2.951000000    -1.589000000
O     3.596000000    -2.084000000     2.038000000
H     4.007000000    -1.909000000     2.884000000
H     2.781000000    -2.537000000     2.256000000
O    -4.613000000    -3.392000000     0.973000000
H    -4.072000000    -4.043000000     0.526000000
H    -4.055000000    -2.617000000     1.031000000
O    -4.121000000    -1.321000000     3.447000000
H    -3.922000000    -2.257000000     3.432000000
H    -3.857000000    -1.007000000     2.582000000
O     5.513000000    -0.979000000     4.000000000
H     5.779000000    -0.890000000     4.915000000
H     5.982000000    -1.753000000     3.688000000
O     5.324000000     2.001000000    -0.145000000
H     5.480000000     1.151000000    -0.557000000
H     5.644000000     1.895000000     0.750000000
O    -0.819000000    -4.321000000     5.350000000
H    -0.210000000    -4.750000000     4.749000000
H    -0.833000000    -3.407000000     5.065000000
O    -3.723000000     1.583000000     1.904000000
H    -3.426000000     2.074000000     1.137000000
H    -3.855000000     0.691000000     1.581000000
O    -5.853000000     1.078000000    -2.898000000
H    -6.051000000     0.395000000    -2.257000000
H    -6.627000000     1.108000000    -3.462000000
O    -6.804000000     2.005000000     0.997000000
H    -7.385000000     1.513000000     1.577000000
H    -6.478000000     1.355000000     0.376000000
O    -0.388000000    -1.655000000     5.410000000
H    -0.825000000    -1.727000000     6.258000000
H    -0.300000000    -0.713000000     5.265000000
O     3.666000000     6.898000000    -0.504000000
H     3.101000000     6.654000000    -1.237000000
H     3.700000000     6.114000000     0.043000000
O     3.170000000     1.002000000    -4.016000000
H     3.830000000     0.907000000    -4.703000000
H     3.060000000     1.948000000    -3.919000000
O     0.379000000     1.111000000     4.940000000
H     1.096000000     1.568000000     4.499000000
H    -0.414000000     1.471000000     4.543000000
O    -0.966000000     1.573000000    -4.514000000
H    -0.672000000     0.662000000    -4.503000000
H    -1.921000000     1.515000000    -4.547000000
O    -3.616000000     1.460000000    -4.286000000
H    -4.349000000     1.249000000    -3.708000000
H    -3.936000000     1.256000000    -5.165000000
O    -0.854000000    -3.382000000     1.037000000
H    -0.462000000    -3.332000000     0.165000000
H    -1.403000000    -4.166000000     1.008000000
O    -7.125000000    -0.672000000     2.584000000
H    -7.848000000    -0.385000000     3.142000000
H    -6.337000000    -0.441000000     3.076000000
O     3.820000000    -2.901000000    -0.934000000
H     4.423000000    -3.623000000    -0.758000000
H     3.631000000    -2.531000000    -0.072000000
O    -2.828000000    -5.555000000    -0.382000000
H    -3.108000000    -5.387000000    -1.282000000
H    -2.121000000    -6.194000000    -0.467000000
O    -5.790000000     2.056000000     3.633000000
H    -4.912000000     1.819000000     3.333000000
H    -6.282000000     2.220000000     2.829000000
O     6.824000000    -1.180000000    -0.478000000
H     7.160000000    -1.563000000    -1.288000000
H     5.909000000    -0.976000000    -0.671000000
O    -1.709000000     2.494000000     3.653000000
H    -2.327000000     1.762000000     3.630000000
H    -1.331000000     2.516000000     2.774000000
O     4.644000000    -2.657000000    -3.349000000
H     4.387000000    -2.823000000    -2.442000000
H     5.013000000    -3.488000000    -3.649000000
O    -0.605000000     2.671000000     1.190000000
H     0.059000000     3.292000000     0.892000000
H    -0.381000000     1.851000000     0.751000000
O     1.205000000    -2.435000000     3.241000000
H     0.589000000    -2.480000000     2.509000000
H     0.651000000    -2.316000000     4.012000000
O     0.418000000    -3.124000000    -1.417000000
H     0.599000000    -2.285000000    -0.993000000
H     0.099000000    -2.888000000    -2.288000000
O     0.537000000     3.650000000    -5.215000000
H     1.232000000     3.249000000    -5.737000000
H    -0.007000000     2.914000000    -4.935000000
O    -6.746000000    -4.581000000     1.882000000
H    -7.540000000    -4.153000000     1.560000000
H    -6.045000000    -3.955000000     1.699000000
O    -3.395000000    -1.952000000    -3.669000000
H    -4.101000000    -1.503000000    -4.133000000
H    -3.245000000    -1.421000000    -2.887000000
