158
-3000.66766
C    -0.233000000     1.395000000    -0.307000000
H    -0.155000000     2.455000000    -0.537000000
C     0.893000000     0.662000000    -0.604000000
H     1.733000000     1.281000000    -0.909000000
C     0.981000000    -0.667000000    -0.255000000
H     1.923000000    -1.171000000    -0.495000000
C    -0.070000000    -1.275000000     0.368000000
H    -0.039000000    -2.343000000     0.565000000
C    -1.163000000    -0.533000000     0.702000000
H    -1.994000000    -1.042000000     1.183000000
C    -1.315000000     0.805000000     0.335000000
C    -2.402000000     1.757000000     0.898000000
O    -2.417000000     2.954000000     0.613000000
O    -3.196000000     1.260000000     1.744000000
O     6.116000000    -2.138000000    -2.436000000
H     6.727000000    -2.738000000    -2.008000000
H     5.683000000    -2.671000000    -3.103000000
O    -1.226000000     4.147000000     2.528000000
H    -1.680000000     3.753000000     1.783000000
H    -0.902000000     3.401000000     3.032000000
O     0.527000000     4.322000000    -3.163000000
H    -0.239000000     4.214000000    -2.598000000
H     0.344000000     3.771000000    -3.923000000
O    -4.891000000     6.363000000    -2.588000000
H    -4.765000000     5.900000000    -1.760000000
H    -4.054000000     6.270000000    -3.044000000
O    -2.084000000    -0.447000000     3.670000000
H    -2.519000000    -1.263000000     3.916000000
H    -2.691000000    -0.025000000     3.062000000
O    -1.758000000     6.825000000     3.610000000
H    -1.038000000     6.195000000     3.576000000
H    -2.548000000     6.286000000     3.644000000
O    -1.700000000     4.254000000    -1.555000000
H    -2.310000000     3.900000000    -0.909000000
H    -1.298000000     5.006000000    -1.118000000
O    -3.307000000    -4.046000000     0.680000000
H    -2.513000000    -3.729000000     1.111000000
H    -3.041000000    -4.200000000    -0.227000000
O    -0.974000000    -5.855000000    -0.003000000
H    -0.894000000    -5.584000000    -0.918000000
H    -0.251000000    -5.414000000     0.442000000
O    -4.091000000     5.375000000     3.784000000
H    -4.538000000     5.636000000     4.589000000
H    -4.154000000     4.420000000     3.774000000
O    -2.139000000     6.175000000    -3.850000000
H    -1.745000000     5.598000000    -3.196000000
H    -1.570000000     6.944000000    -3.865000000
O     5.011000000    -5.167000000     2.022000000
H     5.195000000    -5.914000000     2.591000000
H     4.107000000    -5.301000000     1.736000000
O    -3.407000000    -2.605000000     4.517000000
H    -3.418000000    -3.432000000     4.999000000
H    -4.247000000    -2.196000000     4.724000000
O    -6.878000000    -0.499000000    -1.300000000
H    -6.863000000     0.239000000    -0.690000000
H    -6.137000000    -0.340000000    -1.886000000
O     2.369000000    -1.266000000    -3.727000000
H     3.277000000    -1.123000000    -3.461000000
H     2.166000000    -0.524000000    -4.296000000
O    -5.324000000    -0.440000000     1.588000000
H    -6.105000000     0.072000000     1.380000000
H    -4.613000000     0.201000000     1.598000000
O    -3.506000000     2.848000000    -3.724000000
H    -3.056000000     3.456000000    -3.137000000
H    -2.853000000     2.629000000    -4.389000000
O    -6.051000000    -1.036000000     4.075000000
H    -6.041000000    -0.916000000     3.125000000
H    -6.980000000    -1.046000000     4.305000000
O    -4.553000000     2.869000000     3.515000000
H    -5.015000000     3.452000000     2.913000000
H    -4.178000000     2.191000000     2.952000000
O     1.866000000     6.727000000     1.167000000
H     1.202000000     6.076000000     0.942000000
H     2.699000000     6.268000000     1.056000000
O    -2.472000000     7.893000000     0.519000000
H    -3.002000000     8.684000000     0.426000000
H    -3.106000000     7.176000000     0.488000000
O     3.827000000    -3.199000000    -0.458000000
H     3.021000000    -3.506000000    -0.874000000
H     4.401000000    -2.970000000    -1.189000000
O    -0.453000000     6.425000000    -0.815000000
H     0.298000000     6.969000000    -1.053000000
H    -1.014000000     7.004000000    -0.298000000
O    -2.812000000    -1.039000000    -4.197000000
H    -2.038000000    -1.244000000    -3.672000000
H    -3.063000000    -1.875000000    -4.590000000
O    -1.806000000     2.028000000     6.143000000
H    -1.601000000     2.167000000     5.219000000
H    -1.118000000     1.439000000     6.455000000
O     2.500000000     4.237000000    -1.150000000
H     1.865000000     3.713000000    -1.639000000
H     3.345000000     4.011000000    -1.537000000
O     2.355000000    -4.083000000     4.056000000
H     1.964000000    -3.248000000     3.798000000
H     2.616000000    -4.491000000     3.230000000
O    -7.539000000     1.344000000     0.986000000
H    -8.219000000     0.985000000     1.557000000
H    -7.782000000     2.263000000     0.873000000
O     2.825000000     2.593000000     1.984000000
H     2.333000000     2.929000000     1.234000000
H     2.585000000     3.174000000     2.707000000
O     2.391000000    -5.638000000     0.892000000
H     1.835000000    -6.137000000     1.489000000
H     2.706000000    -6.284000000     0.260000000
O     4.325000000    -6.341000000    -2.951000000
H     4.135000000    -5.413000000    -3.085000000
H     5.210000000    -6.354000000    -2.586000000
O     5.318000000     0.351000000    -3.431000000
H     5.568000000    -0.416000000    -2.914000000
H     5.445000000     0.079000000    -4.340000000
O     0.053000000    -4.344000000    -4.473000000
H     0.299000000    -3.773000000    -5.201000000
H    -0.736000000    -4.793000000    -4.777000000
O    -0.614000000    -1.364000000    -2.905000000
H     0.261000000    -1.166000000    -3.238000000
H    -0.565000000    -1.165000000    -1.970000000
O     4.588000000    -2.524000000     2.057000000
H     5.182000000    -3.180000000     2.423000000
H     4.213000000    -2.945000000     1.284000000
O    -5.538000000    -3.175000000     2.196000000
H    -5.476000000    -2.233000000     2.036000000
H    -4.749000000    -3.538000000     1.795000000
O    -5.472000000     1.526000000     5.469000000
H    -5.486000000     0.704000000     4.979000000
H    -4.962000000     2.123000000     4.922000000
O     6.956000000     0.551000000     0.190000000
H     7.482000000     0.180000000    -0.519000000
H     6.051000000     0.373000000    -0.064000000
O     2.177000000    -3.527000000    -2.620000000
H     1.500000000    -4.015000000    -3.090000000
H     2.248000000    -2.699000000    -3.094000000
O    -0.550000000     1.860000000     3.810000000
H    -0.991000000     1.067000000     3.501000000
H     0.383000000     1.664000000     3.723000000
O     4.493000000     2.781000000    -2.081000000
H     4.633000000     1.888000000    -2.397000000
H     5.324000000     3.023000000    -1.673000000
O    -0.711000000    -4.035000000    -1.855000000
H    -0.073000000    -3.366000000    -1.606000000
H    -0.803000000    -3.938000000    -2.803000000
O    -1.465000000    -3.633000000     2.729000000
H    -0.860000000    -3.666000000     3.470000000
H    -2.263000000    -3.246000000     3.088000000
O     1.662000000     0.701000000    -5.323000000
H     1.128000000     1.470000000    -5.124000000
H     2.211000000     0.974000000    -6.058000000
O     0.978000000    -1.345000000     3.682000000
H     1.461000000    -0.573000000     3.975000000
H     0.434000000    -1.028000000     2.961000000
O     3.236000000     0.310000000     3.616000000
H     3.424000000    -0.374000000     2.974000000
H     3.116000000     1.103000000     3.093000000
O    -4.273000000     4.832000000    -0.269000000
H    -5.123000000     4.804000000     0.170000000
H    -3.742000000     4.186000000     0.196000000
O    -1.867000000    -6.588000000     2.565000000
H    -1.613000000    -6.429000000     1.656000000
H    -2.176000000    -5.739000000     2.880000000
