158
-3016.95480
C    -0.970000000     0.860000000    -0.756000000
H    -1.560000000     1.624000000    -1.256000000
C     0.369000000     0.697000000    -1.080000000
H     0.765000000     1.242000000    -1.932000000
C     1.117000000    -0.293000000    -0.376000000
H     2.045000000    -0.660000000    -0.766000000
C     0.568000000    -0.987000000     0.621000000
H     1.100000000    -1.792000000     1.121000000
C    -0.729000000    -0.733000000     1.039000000
H    -1.106000000    -1.310000000     1.880000000
C    -1.544000000     0.190000000     0.303000000
C    -2.920000000     0.610000000     0.852000000
O    -3.730000000     1.229000000     0.234000000
O    -3.135000000     0.320000000     1.978000000
O     6.064000000    -1.184000000     2.293000000
H     6.896000000    -1.621000000     2.475000000
H     5.863000000    -0.707000000     3.098000000
O     3.775000000    -3.636000000    -2.523000000
H     4.212000000    -2.793000000    -2.407000000
H     3.422000000    -3.844000000    -1.658000000
O     2.166000000    -3.273000000    -4.705000000
H     2.771000000    -3.730000000    -4.120000000
H     1.815000000    -2.557000000    -4.175000000
O     1.852000000     4.694000000     1.842000000
H     1.095000000     4.198000000     2.153000000
H     2.606000000     4.159000000     2.089000000
O     3.671000000     2.619000000    -3.706000000
H     4.224000000     3.266000000    -3.268000000
H     2.778000000     2.859000000    -3.459000000
O    -4.768000000     4.582000000     4.158000000
H    -4.284000000     5.231000000     3.646000000
H    -4.882000000     3.843000000     3.561000000
O     5.746000000    -5.484000000    -2.123000000
H     4.927000000    -4.994000000    -2.187000000
H     5.554000000    -6.191000000    -1.507000000
O    -3.997000000    -1.778000000     3.333000000
H    -4.042000000    -2.342000000     2.561000000
H    -3.721000000    -0.928000000     2.993000000
O    -1.411000000     4.907000000    -0.858000000
H    -1.912000000     4.359000000    -0.253000000
H    -1.259000000     5.719000000    -0.374000000
O    -5.792000000     2.953000000    -0.421000000
H    -4.972000000     2.698000000     0.002000000
H    -6.283000000     3.409000000     0.263000000
O     3.883000000    -1.556000000    -6.153000000
H     3.598000000    -2.291000000    -5.610000000
H     3.758000000    -0.786000000    -5.597000000
O     5.611000000    -0.256000000    -0.146000000
H     5.765000000    -0.532000000     0.757000000
H     6.485000000    -0.089000000    -0.498000000
O    -4.130000000    -3.856000000     1.426000000
H    -3.606000000    -3.882000000     0.625000000
H    -5.037000000    -3.836000000     1.118000000
O    -2.257000000     1.228000000    -4.865000000
H    -1.894000000     0.347000000    -4.958000000
H    -2.829000000     1.172000000    -4.100000000
O    -0.744000000    -2.683000000    -2.271000000
H     0.118000000    -2.362000000    -2.009000000
H    -1.273000000    -1.892000000    -2.376000000
O    -6.245000000     0.198000000    -0.091000000
H    -6.318000000     0.847000000    -0.790000000
H    -5.329000000     0.244000000     0.183000000
O    -6.559000000    -1.724000000     2.634000000
H    -5.762000000    -2.027000000     3.069000000
H    -6.816000000    -2.453000000     2.070000000
O    -4.323000000     2.079000000     3.428000000
H    -5.200000000     1.702000000     3.352000000
H    -3.758000000     1.470000000     2.953000000
O     1.457000000     1.235000000    -6.447000000
H     1.134000000     0.745000000    -7.202000000
H     2.376000000     1.409000000    -6.650000000
O    -4.112000000     6.224000000    -2.024000000
H    -3.515000000     6.944000000    -2.225000000
H    -3.680000000     5.448000000    -2.382000000
O     3.694000000     0.582000000     1.974000000
H     4.124000000     0.522000000     1.121000000
H     4.039000000     1.387000000     2.360000000
O    -5.512000000     3.920000000    -3.159000000
H    -6.367000000     3.535000000    -3.352000000
H    -5.418000000     3.834000000    -2.211000000
O    -2.173000000    -1.405000000    -4.632000000
H    -2.218000000    -1.520000000    -5.582000000
H    -3.080000000    -1.486000000    -4.338000000
O     1.511000000    -0.348000000     3.386000000
H     2.263000000    -0.086000000     2.856000000
H     1.257000000     0.448000000     3.852000000
O     5.163000000     3.161000000     2.594000000
H     5.671000000     3.050000000     1.790000000
H     5.799000000     3.476000000     3.237000000
O    -1.281000000    -4.264000000     3.520000000
H    -1.064000000    -3.502000000     4.058000000
H    -0.728000000    -4.174000000     2.744000000
O     5.856000000     1.660000000    -5.119000000
H     6.311000000     1.076000000    -4.511000000
H     5.093000000     1.967000000    -4.630000000
O    -7.060000000     1.043000000     2.861000000
H    -8.002000000     0.894000000     2.948000000
H    -6.721000000     0.225000000     2.498000000
O     0.276000000    -4.967000000     0.266000000
H     0.354000000    -5.525000000     1.040000000
H    -0.162000000    -5.517000000    -0.383000000
O    -1.932000000    -1.624000000     5.003000000
H    -2.071000000    -0.749000000     5.364000000
H    -2.636000000    -1.734000000     4.363000000
O     0.519000000    -1.020000000    -4.453000000
H    -0.423000000    -1.157000000    -4.355000000
H     0.718000000    -1.347000000    -5.330000000
O    -3.609000000     6.323000000     1.490000000
H    -3.388000000     5.391000000     1.485000000
H    -2.763000000     6.769000000     1.440000000
O     2.526000000     5.580000000    -0.586000000
H     2.016000000     5.184000000    -1.293000000
H     2.157000000     5.206000000     0.214000000
O    -3.974000000     0.982000000    -2.477000000
H    -3.996000000     1.098000000    -1.527000000
H    -4.881000000     0.786000000    -2.714000000
O     2.881000000    -3.465000000    -0.069000000
H     2.011000000    -3.833000000     0.085000000
H     3.051000000    -2.923000000     0.702000000
O    -2.541000000     0.966000000     6.088000000
H    -3.162000000     1.658000000     5.863000000
H    -1.698000000     1.413000000     6.158000000
O    -8.267000000     3.024000000     1.091000000
H    -8.101000000     2.198000000     0.636000000
H    -8.371000000     2.776000000     2.009000000
O     5.041000000    -1.297000000    -2.557000000
H     4.510000000    -0.664000000    -3.040000000
H     5.229000000    -0.866000000    -1.724000000
O    -0.117000000     3.002000000     2.548000000
H    -0.287000000     2.457000000     1.780000000
H    -0.023000000     2.379000000     3.268000000
O     3.025000000    -0.106000000    -4.182000000
H     3.117000000     0.846000000    -4.240000000
H     2.104000000    -0.271000000    -4.382000000
O    -5.179000000    -2.084000000    -1.238000000
H    -5.673000000    -1.390000000    -0.800000000
H    -5.605000000    -2.894000000    -0.957000000
O     0.817000000     4.941000000    -2.560000000
H    -0.062000000     4.893000000    -2.184000000
H     0.682000000     4.834000000    -3.501000000
O    -0.101000000     2.855000000    -4.571000000
H    -0.966000000     2.456000000    -4.483000000
H     0.364000000     2.284000000    -5.183000000
O     0.552000000    -2.453000000     4.884000000
H     0.831000000    -1.812000000     4.230000000
H    -0.375000000    -2.262000000     5.027000000
O     3.713000000    -2.548000000     2.758000000
H     3.253000000    -1.754000000     3.030000000
H     4.500000000    -2.229000000     2.317000000
O    -2.937000000     3.695000000     1.450000000
H    -3.001000000     2.828000000     1.050000000
H    -2.767000000     3.520000000     2.375000000
O    -5.795000000    -1.097000000     5.641000000
H    -5.123000000    -0.978000000     4.970000000
H    -5.924000000    -0.222000000     6.007000000
O    -2.982000000    -4.437000000    -1.111000000
H    -2.167000000    -4.017000000    -1.385000000
H    -3.551000000    -4.380000000    -1.878000000
