158
-3032.10297
C     0.497000000    -0.162000000    -1.420000000
H     0.987000000    -0.263000000    -2.385000000
C     0.561000000    -1.167000000    -0.466000000
H     0.820000000    -2.184000000    -0.750000000
C     0.006000000    -0.865000000     0.792000000
H    -0.078000000    -1.719000000     1.484000000
C    -0.426000000     0.380000000     1.182000000
H    -0.656000000     0.547000000     2.232000000
C    -0.378000000     1.377000000     0.232000000
H    -0.602000000     2.392000000     0.552000000
C    -0.025000000     1.084000000    -1.106000000
C    -0.062000000     2.206000000    -2.049000000
O     0.646000000     2.075000000    -2.989000000
O    -0.791000000     3.170000000    -1.914000000
O    -4.350000000    -0.738000000    -1.056000000
H    -4.363000000    -0.042000000    -0.399000000
H    -3.809000000    -0.390000000    -1.764000000
O    -2.874000000     2.829000000    -5.295000000
H    -2.110000000     2.257000000    -5.222000000
H    -3.485000000     2.342000000    -5.848000000
O     1.936000000     4.424000000    -0.849000000
H     1.725000000     5.151000000    -1.433000000
H     1.281000000     3.756000000    -1.051000000
O    -1.549000000     4.216000000    -7.524000000
H    -0.897000000     3.964000000    -6.871000000
H    -1.906000000     3.386000000    -7.838000000
O    -1.057000000    -6.252000000    -0.033000000
H    -0.883000000    -5.941000000    -0.921000000
H    -1.827000000    -6.814000000    -0.122000000
O     0.037000000     1.562000000     4.791000000
H     0.050000000     0.610000000     4.894000000
H     0.511000000     1.721000000     3.975000000
O    -2.499000000     5.137000000    -3.697000000
H    -2.254000000     4.251000000    -3.964000000
H    -2.723000000     5.580000000    -4.516000000
O    -1.277000000     4.961000000     1.218000000
H    -0.661000000     5.544000000     1.663000000
H    -1.391000000     5.350000000     0.351000000
O     0.135000000     3.582000000    -5.023000000
H     0.487000000     3.037000000    -4.319000000
H     0.464000000     4.461000000    -4.833000000
O     5.009000000    -4.119000000    -3.508000000
H     4.457000000    -3.456000000    -3.094000000
H     4.444000000    -4.888000000    -3.584000000
O    -0.778000000    -4.215000000    -4.742000000
H    -0.271000000    -4.693000000    -5.398000000
H    -0.964000000    -3.371000000    -5.152000000
O     0.320000000     3.148000000     6.915000000
H     0.539000000     4.043000000     6.656000000
H     0.530000000     2.618000000     6.146000000
O     1.105000000    -5.794000000     1.610000000
H     0.366000000    -5.908000000     1.013000000
H     1.313000000    -6.681000000     1.906000000
O     3.221000000    -4.444000000     3.745000000
H     2.494000000    -5.036000000     3.941000000
H     3.729000000    -4.903000000     3.076000000
O    -4.117000000    -4.513000000     0.144000000
H    -4.005000000    -4.978000000     0.974000000
H    -3.257000000    -4.135000000    -0.037000000
O     3.012000000     1.707000000    -3.675000000
H     2.072000000     1.719000000    -3.498000000
H     3.078000000     1.748000000    -4.629000000
O    -2.600000000    -0.182000000    -3.128000000
H    -3.476000000     0.121000000    -3.368000000
H    -2.010000000     0.474000000    -3.499000000
O     1.508000000     6.008000000    -4.800000000
H     2.249000000     6.493000000    -4.438000000
H     1.755000000     5.835000000    -5.708000000
O    -3.397000000     3.358000000     1.589000000
H    -4.079000000     3.619000000     2.208000000
H    -2.777000000     4.087000000     1.593000000
O     0.058000000    -4.940000000    -2.162000000
H     0.084000000    -4.862000000    -3.116000000
H    -0.387000000    -4.145000000    -1.868000000
O     2.631000000     0.299000000     3.202000000
H     2.894000000    -0.425000000     3.770000000
H     3.097000000     0.142000000     2.381000000
O     2.801000000    -2.357000000    -7.166000000
H     2.738000000    -2.291000000    -6.213000000
H     3.493000000    -1.740000000    -7.404000000
O     5.637000000     2.170000000    -2.606000000
H     4.695000000     2.212000000    -2.769000000
H     5.764000000     1.341000000    -2.145000000
O     3.801000000    -1.799000000     4.113000000
H     3.444000000    -2.684000000     4.033000000
H     4.156000000    -1.764000000     5.001000000
O    -5.297000000    -4.375000000     4.425000000
H    -4.344000000    -4.288000000     4.449000000
H    -5.614000000    -3.719000000     5.045000000
O     2.863000000     1.998000000    -6.381000000
H     3.597000000     2.559000000    -6.634000000
H     2.612000000     1.553000000    -7.191000000
O    -0.997000000     0.965000000    -4.943000000
H    -0.477000000     1.738000000    -4.724000000
H    -0.948000000     0.906000000    -5.898000000
O     0.222000000     7.094000000     2.024000000
H     0.304000000     7.465000000     1.145000000
H     0.901000000     6.420000000     2.064000000
O     3.650000000    -2.183000000    -2.143000000
H     3.196000000    -2.148000000    -1.301000000
H     4.433000000    -1.648000000    -2.015000000
O     2.421000000     5.366000000     1.589000000
H     2.301000000     4.857000000     0.787000000
H     2.355000000     4.722000000     2.293000000
O    -3.198000000    -0.406000000     5.467000000
H    -3.035000000    -0.684000000     6.368000000
H    -2.582000000    -0.918000000     4.943000000
O    -2.975000000    -1.383000000    -5.569000000
H    -2.895000000    -1.444000000    -4.617000000
H    -2.072000000    -1.395000000    -5.887000000
O    -0.479000000    -1.769000000    -6.230000000
H    -0.267000000    -1.103000000    -5.576000000
H    -0.154000000    -1.406000000    -7.054000000
O    -1.784000000    -2.866000000    -0.484000000
H    -1.073000000    -2.383000000    -0.063000000
H    -2.349000000    -2.187000000    -0.853000000
O    -4.159000000    -1.849000000     1.867000000
H    -4.127000000    -2.091000000     0.941000000
H    -4.281000000    -0.900000000     1.863000000
O    -2.563000000     2.538000000     5.349000000
H    -2.974000000     1.715000000     5.084000000
H    -1.629000000     2.335000000     5.398000000
O    -4.019000000     5.553000000    -1.438000000
H    -3.507000000     5.565000000    -2.247000000
H    -3.571000000     4.917000000    -0.880000000
O    -2.011000000    -3.266000000     6.289000000
H    -2.211000000    -4.162000000     6.559000000
H    -2.069000000    -3.285000000     5.333000000
O     2.574000000    -0.867000000    -4.536000000
H     2.932000000     0.014000000    -4.429000000
H     2.869000000    -1.341000000    -3.759000000
O    -3.451000000     2.232000000    -1.596000000
H    -3.383000000     2.470000000    -0.672000000
H    -2.724000000     2.692000000    -2.016000000
O     2.946000000     1.533000000     0.297000000
H     2.169000000     1.073000000    -0.022000000
H     2.978000000     2.337000000    -0.222000000
O     4.706000000    -3.321000000     1.036000000
H     4.191000000    -3.080000000     1.806000000
H     4.056000000    -3.588000000     0.386000000
O    -2.499000000    -3.057000000     3.750000000
H    -2.208000000    -3.768000000     3.180000000
H    -3.212000000    -2.639000000     3.267000000
O     2.468000000    -4.430000000    -0.226000000
H     2.070000000    -4.918000000     0.496000000
H     1.811000000    -4.454000000    -0.922000000
O     2.440000000     3.046000000     3.095000000
H     2.829000000     2.923000000     3.961000000
H     2.350000000     2.160000000     2.745000000
O    -0.794000000     5.736000000    -1.570000000
H    -1.243000000     6.031000000    -2.362000000
H    -0.746000000     4.785000000    -1.662000000
O    -3.471000000     0.804000000     1.196000000
H    -2.629000000     0.479000000     0.877000000
H    -3.293000000     1.706000000     1.463000000
O     0.696000000     7.800000000    -0.356000000
H     0.198000000     7.152000000    -0.854000000
H     1.021000000     8.412000000    -1.017000000
