158
-3026.45784
C     0.246000000     1.265000000    -0.784000000
H     0.563000000     2.171000000    -1.294000000
C     1.152000000     0.192000000    -0.622000000
H     2.117000000     0.193000000    -1.123000000
C     0.804000000    -0.991000000     0.104000000
H     1.468000000    -1.850000000     0.154000000
C    -0.487000000    -1.079000000     0.533000000
H    -0.859000000    -1.955000000     1.059000000
C    -1.350000000     0.059000000     0.567000000
H    -2.329000000     0.111000000     1.037000000
C    -1.008000000     1.222000000    -0.150000000
C    -2.004000000     2.401000000    -0.139000000
O    -1.543000000     3.512000000    -0.298000000
O    -3.155000000     2.244000000     0.183000000
O    -6.570000000    -1.284000000    -0.748000000
H    -7.154000000    -2.043000000    -0.760000000
H    -5.816000000    -1.570000000    -0.233000000
O    -4.247000000     3.078000000    -3.105000000
H    -3.493000000     2.989000000    -3.688000000
H    -4.968000000     3.328000000    -3.682000000
O     0.588000000     4.769000000     0.617000000
H    -0.170000000     4.304000000     0.262000000
H     0.449000000     5.682000000     0.363000000
O     1.969000000     4.598000000    -2.363000000
H     1.144000000     5.049000000    -2.540000000
H     2.004000000     3.898000000    -3.015000000
O    -2.918000000     3.232000000     2.817000000
H    -2.787000000     3.030000000     1.891000000
H    -3.862000000     3.368000000     2.902000000
O    -5.594000000     3.212000000    -0.882000000
H    -5.159000000     3.353000000    -1.723000000
H    -4.877000000     3.076000000    -0.262000000
O    -5.995000000    -0.923000000     3.979000000
H    -5.345000000    -0.374000000     4.418000000
H    -5.478000000    -1.523000000     3.442000000
O    -1.031000000     4.750000000    -2.865000000
H    -1.229000000     4.304000000    -2.042000000
H    -1.200000000     5.675000000    -2.684000000
O     5.396000000    -5.020000000    -2.968000000
H     4.629000000    -4.540000000    -3.283000000
H     5.454000000    -4.795000000    -2.039000000
O    -1.551000000    -0.905000000     4.672000000
H    -1.945000000    -0.132000000     5.076000000
H    -0.861000000    -0.556000000     4.109000000
O    -1.277000000    -5.832000000    -0.397000000
H    -1.207000000    -5.054000000    -0.951000000
H    -0.474000000    -5.828000000     0.124000000
O     6.024000000    -3.237000000     1.520000000
H     5.374000000    -2.625000000     1.866000000
H     5.526000000    -4.030000000     1.324000000
O    -3.921000000    -3.181000000    -1.175000000
H    -2.971000000    -3.290000000    -1.225000000
H    -4.072000000    -2.796000000    -0.312000000
O     3.475000000     4.405000000    -0.159000000
H     2.705000000     4.692000000     0.332000000
H     3.227000000     4.515000000    -1.078000000
O    -3.500000000     0.331000000    -2.503000000
H    -4.157000000     0.107000000    -3.162000000
H    -3.889000000     1.055000000    -2.013000000
O    -5.179000000     1.223000000     1.709000000
H    -5.828000000     1.858000000     1.406000000
H    -4.445000000     1.324000000     1.104000000
O    -1.340000000    -3.806000000    -2.144000000
H    -1.496000000    -4.197000000    -3.004000000
H    -0.999000000    -2.933000000    -2.337000000
O     5.053000000    -2.791000000     4.114000000
H     4.432000000    -2.134000000     4.429000000
H     4.834000000    -3.583000000     4.604000000
O    -2.027000000     2.547000000    -4.664000000
H    -1.304000000     2.975000000    -4.203000000
H    -1.636000000     1.761000000    -5.045000000
O    -5.478000000     5.833000000     1.663000000
H    -5.433000000     5.382000000     2.506000000
H    -4.821000000     5.395000000     1.122000000
O     3.205000000    -0.176000000    -3.890000000
H     3.716000000    -0.963000000    -4.079000000
H     3.404000000     0.024000000    -2.975000000
O     1.924000000    -4.569000000     3.139000000
H     1.889000000    -5.505000000     2.940000000
H     1.065000000    -4.372000000     3.514000000
O     3.858000000     2.563000000     2.218000000
H     4.551000000     3.118000000     2.575000000
H     3.526000000     3.049000000     1.463000000
O    -1.219000000    -0.675000000    -4.945000000
H    -0.869000000    -1.121000000    -4.173000000
H    -0.447000000    -0.337000000    -5.398000000
O    -0.167000000    -3.387000000     4.490000000
H    -0.704000000    -2.646000000     4.773000000
H    -0.516000000    -4.134000000     4.976000000
O     5.288000000     2.949000000    -2.037000000
H     5.427000000     2.005000000    -1.957000000
H     4.619000000     3.149000000    -1.382000000
O     2.148000000    -1.685000000     3.213000000
H     1.533000000    -0.953000000     3.270000000
H     1.592000000    -2.465000000     3.222000000
O     3.987000000    -2.905000000    -1.769000000
H     3.938000000    -2.854000000    -0.815000000
H     4.813000000    -2.476000000    -1.991000000
O     3.297000000    -7.092000000    -3.477000000
H     2.985000000    -6.232000000    -3.196000000
H     3.865000000    -6.909000000    -4.225000000
O    -0.426000000     5.431000000     2.936000000
H    -0.140000000     5.020000000     2.120000000
H    -0.593000000     4.697000000     3.528000000
O     2.467000000     2.892000000    -4.487000000
H     2.067000000     3.312000000    -5.249000000
H     2.579000000     1.978000000    -4.749000000
O    -3.591000000    -2.511000000     3.519000000
H    -2.949000000    -2.079000000     4.083000000
H    -3.678000000    -3.391000000     3.885000000
O     6.526000000     0.620000000     1.884000000
H     5.676000000     0.189000000     1.790000000
H     6.321000000     1.475000000     2.262000000
O    -1.311000000    -1.042000000    -2.328000000
H    -0.753000000    -0.912000000    -1.561000000
H    -2.055000000    -0.457000000    -2.185000000
O     0.247000000     7.609000000     0.586000000
H     0.244000000     8.017000000     1.452000000
H     0.970000000     8.034000000     0.124000000
O    -5.642000000     4.386000000     3.797000000
H    -6.062000000     4.594000000     4.632000000
H    -5.985000000     3.523000000     3.566000000
O     4.971000000     0.312000000    -1.200000000
H     4.479000000    -0.043000000    -0.460000000
H     5.567000000    -0.393000000    -1.453000000
O     2.170000000    -3.369000000    -5.157000000
H     3.046000000    -2.987000000    -5.102000000
H     1.790000000    -2.985000000    -5.947000000
O    -7.914000000     1.717000000    -1.241000000
H    -7.176000000     2.304000000    -1.406000000
H    -7.730000000     0.944000000    -1.775000000
O     1.888000000    -4.880000000    -2.870000000
H     2.072000000    -4.221000000    -3.539000000
H     0.933000000    -4.945000000    -2.854000000
O     3.409000000    -3.376000000     1.006000000
H     3.151000000    -3.597000000     1.901000000
H     2.871000000    -3.944000000     0.455000000
O    -2.460000000     1.762000000     5.501000000
H    -2.701000000     2.348000000     4.784000000
H    -3.296000000     1.466000000     5.861000000
O     1.728000000    -5.388000000    -0.169000000
H     1.692000000    -6.341000000    -0.252000000
H     1.877000000    -5.075000000    -1.061000000
O     0.623000000     0.528000000     3.157000000
H     1.196000000     0.871000000     3.843000000
H     1.078000000     0.731000000     2.340000000
O     4.099000000    -0.516000000     1.476000000
H     3.609000000     0.234000000     1.813000000
H     3.712000000    -1.273000000     1.917000000
O    -3.665000000     5.143000000    -0.348000000
H    -4.085000000     4.764000000    -1.120000000
H    -2.926000000     4.561000000    -0.168000000
O    -4.385000000    -1.862000000     1.025000000
H    -4.006000000    -2.064000000     1.881000000
H    -4.827000000    -1.023000000     1.151000000
O    -2.520000000     7.614000000     0.529000000
H    -2.998000000     6.918000000     0.079000000
H    -1.598000000     7.374000000     0.431000000
