158
-3022.82533
C     0.817000000     1.180000000    -0.493000000
H     1.445000000     1.998000000    -0.836000000
C     1.021000000     0.492000000     0.724000000
H     1.726000000     0.822000000     1.483000000
C     0.271000000    -0.650000000     1.002000000
H     0.500000000    -1.328000000     1.858000000
C    -0.798000000    -0.982000000     0.232000000
H    -1.441000000    -1.825000000     0.474000000
C    -1.121000000    -0.160000000    -0.861000000
H    -2.017000000    -0.336000000    -1.449000000
C    -0.271000000     0.835000000    -1.327000000
C    -0.512000000     1.480000000    -2.644000000
O     0.405000000     1.968000000    -3.202000000
O    -1.505000000     1.270000000    -3.342000000
O    -4.164000000    -1.635000000    -1.712000000
H    -4.174000000    -1.285000000    -2.603000000
H    -3.621000000    -2.421000000    -1.769000000
O     2.276000000    -1.201000000     4.629000000
H     2.543000000    -1.956000000     4.104000000
H     3.098000000    -0.789000000     4.892000000
O    -4.125000000     0.213000000     3.482000000
H    -3.234000000     0.563000000     3.464000000
H    -4.267000000    -0.126000000     2.598000000
O     0.872000000     0.370000000    -7.675000000
H     1.554000000    -0.256000000    -7.916000000
H     0.342000000    -0.091000000    -7.024000000
O     2.220000000     3.648000000    -3.055000000
H     2.130000000     4.150000000    -2.245000000
H     1.482000000     3.038000000    -3.042000000
O    -1.761000000     1.646000000     6.305000000
H    -1.624000000     1.442000000     5.380000000
H    -0.947000000     1.380000000     6.733000000
O    -0.420000000    -1.942000000     4.517000000
H    -0.231000000    -2.742000000     4.027000000
H     0.424000000    -1.682000000     4.886000000
O    -2.077000000     3.962000000    -0.912000000
H    -2.854000000     4.505000000    -0.780000000
H    -1.907000000     4.011000000    -1.852000000
O     4.210000000     0.402000000     5.315000000
H     4.668000000     0.506000000     4.482000000
H     4.854000000    -0.005000000     5.894000000
O    -1.545000000     4.470000000    -3.565000000
H    -1.101000000     3.622000000    -3.534000000
H    -1.226000000     4.878000000    -4.369000000
O     1.359000000    -2.173000000    -1.750000000
H     2.230000000    -1.802000000    -1.605000000
H     0.762000000    -1.555000000    -1.329000000
O    -1.231000000     0.600000000     3.966000000
H    -0.979000000    -0.306000000     4.142000000
H    -0.997000000     0.741000000     3.049000000
O     1.914000000    -4.182000000     1.253000000
H     2.792000000    -4.520000000     1.075000000
H     1.521000000    -4.067000000     0.388000000
O    -1.578000000    -4.763000000     5.174000000
H    -0.970000000    -4.576000000     4.459000000
H    -1.485000000    -4.019000000     5.769000000
O    -0.661000000     2.279000000    -5.883000000
H    -0.473000000     1.904000000    -5.023000000
H    -0.049000000     1.841000000    -6.474000000
O    -1.559000000    -0.585000000    -5.804000000
H    -1.382000000    -1.387000000    -5.314000000
H    -1.545000000     0.108000000    -5.143000000
O     2.620000000     6.231000000    -4.348000000
H     2.434000000     5.365000000    -3.985000000
H     1.833000000     6.743000000    -4.161000000
O    -4.559000000     2.143000000     1.099000000
H    -5.306000000     2.633000000     1.443000000
H    -3.807000000     2.476000000     1.590000000
O     2.470000000    -0.187000000    -3.829000000
H     2.930000000    -0.428000000    -3.024000000
H     1.788000000     0.421000000    -3.542000000
O     3.506000000     2.716000000     1.539000000
H     4.004000000     3.531000000     1.494000000
H     3.861000000     2.179000000     0.830000000
O     3.222000000     2.065000000    -5.533000000
H     3.024000000     1.169000000    -5.259000000
H     2.921000000     2.610000000    -4.806000000
O     3.603000000    -3.366000000     3.265000000
H     2.922000000    -4.002000000     3.047000000
H     4.194000000    -3.838000000     3.851000000
O     0.377000000     1.003000000     7.704000000
H     0.953000000     0.589000000     8.346000000
H     0.962000000     1.273000000     6.996000000
O     1.826000000     2.138000000     5.666000000
H     1.581000000     2.401000000     4.779000000
H     2.669000000     1.697000000     5.561000000
O    -0.278000000     4.876000000     1.694000000
H    -0.272000000     4.536000000     0.800000000
H     0.160000000     5.725000000     1.631000000
O    -4.016000000     1.563000000    -4.084000000
H    -3.082000000     1.540000000    -3.874000000
H    -4.401000000     2.113000000    -3.402000000
O     2.172000000    -2.182000000     7.464000000
H     2.124000000    -1.579000000     6.722000000
H     1.527000000    -1.848000000     8.086000000
O     2.266000000     5.837000000    -1.603000000
H     2.527000000     6.163000000    -0.741000000
H     2.534000000     6.526000000    -2.211000000
O    -4.076000000     5.554000000    -4.593000000
H    -4.376000000     5.668000000    -5.495000000
H    -3.597000000     4.725000000    -4.603000000
O    -3.901000000    -1.824000000     5.067000000
H    -3.887000000    -2.417000000     4.316000000
H    -4.097000000    -0.966000000     4.691000000
O    -4.431000000     0.185000000    -7.084000000
H    -4.406000000     0.826000000    -6.373000000
H    -3.659000000    -0.362000000    -6.941000000
O    -0.496000000    -2.635000000    -3.816000000
H     0.134000000    -2.298000000    -3.178000000
H    -1.288000000    -2.800000000    -3.306000000
O    -2.379000000    -3.639000000    -1.873000000
H    -2.362000000    -4.046000000    -1.007000000
H    -1.861000000    -4.227000000    -2.423000000
O    -0.434000000    -4.141000000     2.803000000
H    -1.122000000    -4.382000000     2.182000000
H     0.360000000    -4.087000000     2.271000000
O    -4.428000000    -1.257000000    -4.364000000
H    -5.274000000    -0.984000000    -4.720000000
H    -3.926000000    -0.445000000    -4.291000000
O    -2.551000000     3.075000000     2.416000000
H    -1.832000000     3.304000000     1.826000000
H    -2.283000000     3.426000000     3.266000000
O    -1.430000000    -2.361000000     7.088000000
H    -1.222000000    -1.741000000     7.787000000
H    -1.800000000    -1.821000000     6.391000000
O    -2.879000000     3.081000000    -7.288000000
H    -2.311000000     2.631000000    -6.663000000
H    -2.539000000     3.975000000    -7.319000000
O     3.834000000    -0.886000000    -1.692000000
H     4.643000000    -1.235000000    -2.065000000
H     3.928000000    -1.017000000    -0.749000000
O    -7.114000000     0.240000000    -2.495000000
H    -7.522000000     0.961000000    -2.975000000
H    -6.176000000     0.348000000    -2.653000000
O    -4.352000000     2.633000000    -1.621000000
H    -4.477000000     2.383000000    -0.705000000
H    -3.476000000     3.018000000    -1.647000000
O     4.772000000    -4.986000000     1.147000000
H     4.966000000    -4.194000000     1.649000000
H     5.416000000    -5.626000000     1.451000000
O     4.716000000     1.594000000    -0.612000000
H     4.474000000     0.721000000    -0.922000000
H     5.241000000     1.963000000    -1.322000000
O     4.466000000    -1.099000000     1.060000000
H     4.929000000    -0.664000000     1.776000000
H     4.102000000    -1.891000000     1.455000000
O    -2.012000000    -4.883000000     0.709000000
H    -1.708000000    -5.636000000     0.202000000
H    -2.852000000    -5.163000000     1.074000000
O     1.543000000     3.196000000     3.291000000
H     2.215000000     3.007000000     2.636000000
H     0.889000000     3.713000000     2.820000000
O    -4.851000000    -0.743000000     0.960000000
H    -4.920000000     0.208000000     0.880000000
H    -4.662000000    -1.046000000     0.072000000
O     4.800000000     4.208000000    -3.634000000
H     3.917000000     3.980000000    -3.342000000
H     4.662000000     4.772000000    -4.395000000
