158
-3038.58194
C     1.042000000     0.108000000    -1.047000000
H     1.904000000     0.264000000    -1.690000000
C     1.190000000    -0.446000000     0.195000000
H     2.202000000    -0.801000000     0.372000000
C     0.142000000    -0.561000000     1.110000000
H     0.370000000    -1.015000000     2.048000000
C    -1.147000000    -0.173000000     0.736000000
H    -2.063000000    -0.363000000     1.289000000
C    -1.237000000     0.379000000    -0.544000000
H    -2.250000000     0.611000000    -0.864000000
C    -0.190000000     0.637000000    -1.419000000
C    -0.384000000     1.416000000    -2.707000000
O     0.497000000     1.521000000    -3.516000000
O    -1.479000000     1.928000000    -2.942000000
O    -4.880000000    -2.864000000    -0.107000000
H    -4.953000000    -1.912000000    -0.034000000
H    -3.943000000    -3.040000000    -0.015000000
O     2.668000000    -0.748000000     3.662000000
H     2.458000000    -1.300000000     2.908000000
H     3.510000000    -0.352000000     3.441000000
O    -4.775000000    -0.593000000     2.717000000
H    -4.244000000     0.192000000     2.583000000
H    -5.191000000    -0.748000000     1.870000000
O     1.428000000     3.970000000    -3.627000000
H     0.663000000     4.544000000    -3.585000000
H     1.064000000     3.095000000    -3.757000000
O     1.870000000     4.684000000     3.694000000
H     2.065000000     4.659000000     4.631000000
H     1.548000000     3.805000000     3.494000000
O    -2.589000000    -0.213000000     7.578000000
H    -2.252000000     0.234000000     6.802000000
H    -3.308000000     0.342000000     7.881000000
O    -0.743000000    -1.772000000     4.681000000
H    -0.468000000    -2.388000000     4.001000000
H     0.033000000    -1.659000000     5.229000000
O    -1.088000000     3.794000000    -1.190000000
H    -0.853000000     3.106000000    -0.567000000
H    -1.380000000     3.321000000    -1.970000000
O     4.698000000     1.039000000     5.586000000
H     5.590000000     1.009000000     5.932000000
H     4.144000000     0.814000000     6.334000000
O    -1.075000000     3.941000000    -4.597000000
H    -1.120000000     3.168000000    -4.034000000
H    -1.363000000     3.629000000    -5.455000000
O    -1.192000000     1.178000000     4.740000000
H    -1.305000000     0.237000000     4.879000000
H    -0.915000000     1.514000000     5.592000000
O     0.820000000    -4.237000000     0.000000000
H     1.238000000    -3.858000000    -0.774000000
H     0.627000000    -5.140000000    -0.251000000
O    -1.246000000     1.211000000    -5.959000000
H    -0.661000000     1.338000000    -5.212000000
H    -1.561000000     0.312000000    -5.867000000
O    -1.755000000    -1.397000000    -5.349000000
H    -1.908000000    -2.114000000    -4.734000000
H    -1.344000000    -1.814000000    -6.106000000
O     0.871000000     5.784000000    -5.924000000
H     1.421000000     5.283000000    -5.323000000
H     0.072000000     5.264000000    -6.009000000
O    -4.736000000     2.440000000     0.487000000
H    -5.509000000     2.873000000     0.849000000
H    -4.084000000     2.489000000     1.186000000
O     1.853000000    -0.807000000    -4.482000000
H     2.593000000    -0.626000000    -3.903000000
H     1.259000000    -0.068000000    -4.349000000
O     2.469000000     2.970000000     0.270000000
H     3.083000000     3.522000000     0.755000000
H     2.999000000     2.235000000    -0.037000000
O    -4.818000000     4.763000000    -3.932000000
H    -5.194000000     4.979000000    -3.079000000
H    -4.521000000     3.858000000    -3.841000000
O     3.074000000     1.799000000    -5.114000000
H     2.259000000     1.770000000    -4.614000000
H     2.793000000     1.844000000    -6.028000000
O     3.002000000    -3.336000000     2.300000000
H     3.282000000    -4.244000000     2.417000000
H     2.047000000    -3.373000000     2.338000000
O    -0.129000000     2.072000000     6.872000000
H     0.234000000     2.123000000     7.757000000
H     0.627000000     2.181000000     6.296000000
O     5.162000000    -1.659000000    -0.090000000
H     5.024000000    -1.573000000     0.854000000
H     5.076000000    -0.767000000    -0.427000000
O    -0.722000000     1.366000000    -8.582000000
H     0.005000000     1.922000000    -8.302000000
H    -1.262000000     1.264000000    -7.798000000
O     2.050000000     1.850000000     5.161000000
H     1.778000000     1.101000000     4.629000000
H     2.969000000     1.677000000     5.366000000
O    -1.928000000     4.173000000     2.617000000
H    -1.740000000     5.110000000     2.670000000
H    -1.068000000     3.755000000     2.639000000
O     3.607000000     6.017000000    -2.779000000
H     3.000000000     5.288000000    -2.654000000
H     3.092000000     6.797000000    -2.572000000
O     2.846000000    -4.196000000     5.348000000
H     2.930000000    -4.677000000     4.525000000
H     3.567000000    -4.519000000     5.889000000
O    -7.451000000     2.255000000    -1.426000000
H    -6.504000000     2.227000000    -1.563000000
H    -7.824000000     2.110000000    -2.295000000
O    -4.381000000     0.520000000    -4.347000000
H    -3.431000000     0.445000000    -4.439000000
H    -4.507000000     0.926000000    -3.489000000
O     1.644000000    -1.847000000     5.936000000
H     2.022000000    -2.694000000     5.699000000
H     2.017000000    -1.233000000     5.304000000
O     1.124000000     5.275000000    -0.291000000
H     1.475000000     4.385000000    -0.327000000
H     0.218000000     5.187000000    -0.587000000
O    -3.742000000    -1.921000000     5.083000000
H    -2.804000000    -2.045000000     4.938000000
H    -4.049000000    -1.469000000     4.298000000
O    -1.886000000    -3.230000000    -3.480000000
H    -2.222000000    -2.827000000    -2.679000000
H    -1.759000000    -4.150000000    -3.250000000
O    -1.975000000    -3.239000000    -0.505000000
H    -1.441000000    -2.569000000    -0.080000000
H    -1.681000000    -4.063000000    -0.116000000
O     5.347000000    -0.036000000    -5.142000000
H     5.469000000    -0.151000000    -6.084000000
H     4.907000000     0.810000000    -5.059000000
O     5.239000000    -1.858000000     2.612000000
H     4.356000000    -2.225000000     2.566000000
H     5.756000000    -2.532000000     3.053000000
O     0.092000000    -3.478000000     2.503000000
H    -0.724000000    -3.955000000     2.656000000
H     0.400000000    -3.795000000     1.654000000
O    -3.187000000     1.678000000     2.698000000
H    -2.576000000     2.296000000     2.296000000
H    -2.822000000     1.510000000     3.567000000
O     4.040000000    -0.751000000    -2.843000000
H     4.485000000    -0.541000000    -3.664000000
H     4.166000000    -1.693000000    -2.737000000
O     2.876000000    -2.590000000    -6.138000000
H     2.106000000    -3.144000000    -6.268000000
H     2.531000000    -1.791000000    -5.739000000
O    -4.133000000     2.395000000    -2.300000000
H    -4.096000000     2.439000000    -1.344000000
H    -3.235000000     2.194000000    -2.565000000
O     4.251000000     1.097000000    -0.544000000
H     4.104000000     0.542000000    -1.309000000
H     4.987000000     1.656000000    -0.791000000
O     3.895000000    -4.250000000    -0.334000000
H     3.198000000    -3.953000000     0.252000000
H     4.504000000    -3.513000000    -0.374000000
O    -1.707000000    -5.673000000     2.300000000
H    -1.757000000    -6.180000000     1.490000000
H    -2.007000000    -6.276000000     2.980000000
O     0.085000000     2.558000000     1.493000000
H     1.029000000     2.637000000     1.359000000
H    -0.101000000     1.631000000     1.345000000
O    -5.341000000    -0.258000000     0.079000000
H    -5.350000000     0.699000000     0.093000000
H    -5.739000000    -0.488000000    -0.761000000
O     3.740000000     4.842000000    -5.351000000
H     3.286000000     4.058000000    -5.041000000
H     3.717000000     5.442000000    -4.606000000
