158
-3045.04009
C    -0.162000000     1.415000000    -0.474000000
H    -0.021000000     2.442000000    -0.802000000
C     0.273000000     1.032000000     0.782000000
H     0.518000000     1.790000000     1.521000000
C     0.342000000    -0.337000000     1.178000000
H     0.712000000    -0.719000000     2.137000000
C     0.005000000    -1.288000000     0.229000000
H     0.108000000    -2.325000000     0.537000000
C    -0.482000000    -0.904000000    -0.982000000
H    -0.795000000    -1.652000000    -1.705000000
C    -0.528000000     0.447000000    -1.437000000
C    -0.870000000     0.823000000    -2.878000000
O    -0.848000000     1.921000000    -3.294000000
O    -1.315000000    -0.005000000    -3.665000000
O    -3.102000000    -2.560000000    -0.329000000
H    -3.235000000    -2.352000000    -1.254000000
H    -2.718000000    -3.437000000    -0.334000000
O    -6.516000000     0.575000000    -3.119000000
H    -5.723000000     0.203000000    -3.504000000
H    -7.193000000    -0.082000000    -3.284000000
O     3.578000000     1.511000000    -3.636000000
H     4.218000000     2.201000000    -3.462000000
H     3.256000000     1.260000000    -2.771000000
O    -2.192000000    -3.607000000    -6.396000000
H    -1.876000000    -2.758000000    -6.087000000
H    -1.510000000    -3.912000000    -6.995000000
O     0.790000000     2.000000000     4.843000000
H     0.263000000     1.237000000     5.078000000
H     1.263000000     2.220000000     5.645000000
O     3.212000000     1.359000000     4.140000000
H     2.267000000     1.276000000     4.265000000
H     3.431000000     2.209000000     4.523000000
O    -0.565000000     5.403000000    -0.728000000
H     0.098000000     5.190000000    -0.071000000
H    -1.285000000     4.799000000    -0.547000000
O     2.581000000    -2.194000000    -1.909000000
H     1.678000000    -2.340000000    -1.627000000
H     3.111000000    -2.668000000    -1.269000000
O    -0.261000000     3.894000000     2.964000000
H    -0.025000000     4.476000000     2.242000000
H     0.578000000     3.634000000     3.345000000
O    -0.730000000    -3.036000000     4.349000000
H     0.032000000    -3.003000000     3.771000000
H    -0.514000000    -3.712000000     4.992000000
O     0.547000000    -4.620000000    -1.424000000
H     0.165000000    -4.735000000    -0.554000000
H     1.463000000    -4.879000000    -1.319000000
O     0.712000000     3.988000000    -3.421000000
H     0.383000000     3.090000000    -3.382000000
H     0.157000000     4.473000000    -2.810000000
O    -0.494000000    -1.330000000    -5.665000000
H     0.173000000    -0.644000000    -5.694000000
H    -0.999000000    -1.140000000    -4.874000000
O     3.472000000     4.498000000    -4.907000000
H     4.234000000     3.942000000    -5.066000000
H     2.818000000     3.908000000    -4.533000000
O    -4.446000000     1.186000000     2.927000000
H    -4.132000000     0.452000000     2.399000000
H    -4.561000000     1.901000000     2.301000000
O    -3.215000000    -0.695000000     5.872000000
H    -3.934000000    -0.295000000     5.384000000
H    -3.285000000    -0.322000000     6.751000000
O    -4.156000000    -5.533000000    -2.106000000
H    -3.332000000    -5.154000000    -2.411000000
H    -4.022000000    -6.479000000    -2.169000000
O    -1.289000000     0.685000000    -8.001000000
H    -0.996000000    -0.025000000    -7.430000000
H    -1.658000000     1.336000000    -7.404000000
O     3.983000000     3.221000000     0.082000000
H     3.907000000     2.280000000     0.245000000
H     4.560000000     3.286000000    -0.679000000
O     1.045000000     0.830000000    -4.841000000
H     1.643000000     1.480000000    -4.471000000
H     0.173000000     1.143000000    -4.599000000
O    -3.076000000    -5.350000000     0.455000000
H    -3.675000000    -5.286000000    -0.289000000
H    -3.584000000    -5.797000000     1.133000000
O     4.251000000     0.657000000     1.697000000
H     5.195000000     0.587000000     1.839000000
H     3.886000000     0.794000000     2.571000000
O     1.534000000     4.607000000     0.753000000
H     2.297000000     4.033000000     0.815000000
H     1.677000000     5.270000000     1.429000000
O    -4.094000000     1.298000000    -1.566000000
H    -3.636000000     0.458000000    -1.560000000
H    -4.976000000     1.087000000    -1.874000000
O    -2.223000000     2.654000000     4.552000000
H    -2.788000000     2.014000000     4.120000000
H    -1.356000000     2.503000000     4.175000000
O     1.139000000     2.692000000    -7.610000000
H     0.770000000     2.574000000    -8.485000000
H     0.658000000     2.072000000    -7.061000000
O     3.375000000    -0.806000000     6.203000000
H     4.171000000    -1.319000000     6.064000000
H     3.215000000    -0.380000000     5.361000000
O    -3.268000000    -1.964000000    -3.306000000
H    -2.496000000    -1.401000000    -3.253000000
H    -3.879000000    -1.481000000    -3.863000000
O     2.535000000     5.864000000    -1.639000000
H     2.258000000     5.377000000    -0.863000000
H     1.913000000     5.604000000    -2.319000000
O     0.385000000    -7.093000000     2.416000000
H    -0.333000000    -7.269000000     3.025000000
H    -0.018000000    -6.588000000     1.710000000
O     0.551000000    -4.026000000    -5.339000000
H     0.166000000    -3.194000000    -5.614000000
H     1.494000000    -3.902000000    -5.450000000
O    -4.517000000    -0.250000000    -4.963000000
H    -4.793000000    -0.240000000    -5.880000000
H    -3.654000000     0.162000000    -4.968000000
O    -0.879000000     6.827000000    -3.016000000
H    -0.805000000     7.680000000    -2.589000000
H    -0.654000000     6.196000000    -2.332000000
O    -0.759000000    -4.621000000     1.463000000
H    -0.929000000    -4.241000000     2.325000000
H    -1.597000000    -4.998000000     1.198000000
O    -1.947000000    -4.882000000    -3.339000000
H    -1.155000000    -4.935000000    -2.804000000
H    -1.635000000    -4.604000000    -4.201000000
O     2.834000000    -5.215000000     1.124000000
H     3.631000000    -5.508000000     1.565000000
H     3.127000000    -4.518000000     0.537000000
O    -0.632000000    -0.448000000     5.256000000
H    -0.463000000    -1.318000000     4.896000000
H    -1.580000000    -0.422000000     5.384000000
O    -2.838000000    -0.180000000     1.082000000
H    -1.974000000     0.108000000     0.790000000
H    -2.909000000    -1.081000000     0.765000000
O    -2.911000000     3.774000000    -0.478000000
H    -3.229000000     2.991000000    -0.927000000
H    -3.528000000     3.904000000     0.242000000
O    -1.900000000     2.048000000    -5.845000000
H    -1.642000000     2.043000000    -4.924000000
H    -2.052000000     2.971000000    -6.047000000
O    -1.305000000     4.601000000    -5.840000000
H    -0.625000000     4.441000000    -5.185000000
H    -0.823000000     4.760000000    -6.651000000
O     1.425000000    -3.278000000     2.719000000
H     1.417000000    -4.012000000     2.105000000
H     2.350000000    -3.045000000     2.801000000
O     3.082000000    -1.231000000    -4.520000000
H     2.583000000    -0.465000000    -4.806000000
H     2.918000000    -1.286000000    -3.579000000
O     3.265000000     0.188000000    -1.233000000
H     3.143000000     0.090000000    -0.289000000
H     2.930000000    -0.628000000    -1.604000000
O     4.310000000    -2.966000000     2.982000000
H     4.538000000    -2.565000000     3.821000000
H     4.923000000    -3.695000000     2.891000000
O    -2.790000000     5.251000000     3.311000000
H    -2.292000000     4.446000000     3.450000000
H    -2.920000000     5.607000000     4.190000000
O     3.948000000    -2.811000000     0.282000000
H     3.922000000    -2.542000000     1.200000000
H     4.797000000    -2.502000000    -0.034000000
O    -3.085000000    -2.866000000     2.990000000
H    -2.710000000    -2.097000000     2.560000000
H    -2.455000000    -3.089000000     3.675000000
