158
-3016.28602
C     1.365000000    -0.102000000    -0.332000000
H     2.431000000    -0.308000000    -0.388000000
C     0.740000000    -0.605000000     0.818000000
H     1.281000000    -1.263000000     1.493000000
C    -0.604000000    -0.486000000     0.989000000
H    -1.097000000    -0.927000000     1.876000000
C    -1.301000000     0.195000000    -0.009000000
H    -2.376000000     0.319000000     0.099000000
C    -0.676000000     0.825000000    -1.075000000
H    -1.291000000     1.369000000    -1.788000000
C     0.722000000     0.713000000    -1.281000000
C     1.430000000     1.232000000    -2.575000000
O     0.942000000     2.033000000    -3.340000000
O     2.593000000     0.892000000    -2.675000000
O    -0.969000000     2.616000000    -4.998000000
H    -0.735000000     2.560000000    -5.925000000
H    -0.142000000     2.481000000    -4.534000000
O     4.561000000     1.183000000     0.987000000
H     4.024000000     1.877000000     1.369000000
H     4.737000000     1.480000000     0.094000000
O    -2.022000000     3.087000000     2.593000000
H    -2.978000000     3.129000000     2.616000000
H    -1.762000000     3.851000000     2.079000000
O     3.933000000    -2.636000000     4.992000000
H     4.469000000    -1.909000000     4.676000000
H     4.331000000    -2.882000000     5.827000000
O     5.057000000    -4.326000000     1.234000000
H     6.011000000    -4.376000000     1.281000000
H     4.861000000    -3.392000000     1.315000000
O    -4.937000000     1.031000000     1.513000000
H    -5.240000000     0.916000000     0.612000000
H    -4.786000000     1.973000000     1.596000000
O    -0.178000000     4.547000000    -2.929000000
H     0.087000000     3.649000000    -3.129000000
H     0.279000000     4.756000000    -2.115000000
O     3.175000000     3.304000000     1.892000000
H     2.406000000     3.121000000     2.432000000
H     3.647000000     3.985000000     2.370000000
O    -4.208000000    -5.371000000     5.441000000
H    -3.848000000    -4.576000000     5.047000000
H    -4.881000000    -5.660000000     4.825000000
O     0.747000000     2.674000000     2.730000000
H    -0.198000000     2.690000000     2.883000000
H     0.916000000     1.807000000     2.363000000
O    -0.726000000    -3.401000000     4.891000000
H    -1.352000000    -3.590000000     4.192000000
H     0.130000000    -3.584000000     4.502000000
O    -3.557000000     3.183000000    -4.210000000
H    -3.900000000     2.303000000    -4.051000000
H    -2.650000000     3.042000000    -4.479000000
O     1.524000000     5.670000000    -5.671000000
H     0.874000000     5.459000000    -5.000000000
H     2.148000000     4.945000000    -5.637000000
O    -5.456000000     3.737000000    -1.765000000
H    -4.990000000     3.700000000    -0.929000000
H    -6.127000000     3.058000000    -1.695000000
O     4.936000000     1.803000000    -2.571000000
H     4.842000000     2.645000000    -2.125000000
H     4.055000000     1.430000000    -2.568000000
O    -3.777000000     0.215000000    -3.897000000
H    -4.299000000    -0.045000000    -4.656000000
H    -3.027000000    -0.380000000    -3.907000000
O    -0.016000000    -0.026000000    -5.784000000
H     0.823000000    -0.431000000    -5.562000000
H    -0.115000000     0.684000000    -5.149000000
O     5.132000000     2.282000000    -5.397000000
H     5.547000000     1.504000000    -5.770000000
H     5.249000000     2.185000000    -4.452000000
O     1.721000000    -3.866000000     0.686000000
H     1.634000000    -2.927000000     0.522000000
H     2.137000000    -3.922000000     1.546000000
O    -2.081000000    -1.306000000     6.564000000
H    -1.811000000    -1.726000000     5.747000000
H    -2.304000000    -0.411000000     6.310000000
O    -1.896000000     5.717000000    -5.216000000
H    -2.829000000     5.761000000    -5.007000000
H    -1.489000000     5.368000000    -4.423000000
O    -4.592000000     3.793000000     1.153000000
H    -3.864000000     4.389000000     0.973000000
H    -5.116000000     4.247000000     1.812000000
O     3.529000000     0.072000000     3.532000000
H     4.372000000    -0.341000000     3.347000000
H     3.452000000     0.764000000     2.875000000
O    -2.801000000    -5.850000000     0.741000000
H    -3.662000000    -6.234000000     0.576000000
H    -2.524000000    -5.510000000    -0.110000000
O     4.880000000    -1.946000000    -5.292000000
H     5.449000000    -2.462000000    -4.722000000
H     5.331000000    -1.936000000    -6.136000000
O     4.102000000    -4.385000000    -1.369000000
H     3.982000000    -3.494000000    -1.697000000
H     4.334000000    -4.272000000    -0.447000000
O    -0.006000000     0.546000000     5.935000000
H     0.234000000    -0.263000000     5.484000000
H     0.196000000     0.376000000     6.856000000
O    -0.322000000    -2.701000000    -1.734000000
H    -0.014000000    -2.369000000    -0.891000000
H    -0.949000000    -3.387000000    -1.507000000
O    -2.799000000     4.739000000    -1.470000000
H    -2.170000000     4.510000000    -2.154000000
H    -3.617000000     4.328000000    -1.749000000
O    -1.424000000    -1.513000000    -3.702000000
H    -1.071000000    -1.996000000    -2.954000000
H    -0.709000000    -0.939000000    -3.976000000
O    -6.651000000    -0.301000000     3.369000000
H    -6.893000000     0.298000000     4.075000000
H    -5.898000000     0.114000000     2.950000000
O     2.469000000    -0.811000000    -4.683000000
H     3.244000000    -1.372000000    -4.664000000
H     2.679000000    -0.092000000    -4.088000000
O     4.057000000    -1.747000000    -1.787000000
H     3.777000000    -0.924000000    -2.187000000
H     5.013000000    -1.693000000    -1.772000000
O    -2.452000000    -4.028000000     2.764000000
H    -3.088000000    -3.339000000     2.573000000
H    -2.619000000    -4.698000000     2.101000000
O     4.991000000    -1.693000000     1.257000000
H     5.119000000    -1.796000000     0.314000000
H     4.971000000    -0.745000000     1.394000000
O     4.475000000     3.812000000    -0.728000000
H     5.138000000     4.502000000    -0.740000000
H     3.730000000     4.203000000    -0.273000000
O    -5.100000000     0.570000000    -1.344000000
H    -4.681000000     0.430000000    -2.193000000
H    -6.023000000     0.366000000    -1.496000000
O    -2.685000000     1.081000000     5.171000000
H    -2.848000000     1.439000000     4.299000000
H    -1.740000000     1.169000000     5.293000000
O    -0.727000000    -6.172000000     2.550000000
H    -1.380000000    -6.375000000     1.880000000
H    -1.158000000    -5.533000000     3.118000000
O     2.534000000     3.321000000    -5.256000000
H     2.094000000     2.850000000    -4.548000000
H     3.253000000     2.746000000    -5.517000000
O    -0.733000000     5.402000000     0.107000000
H    -1.386000000     4.830000000    -0.296000000
H    -0.725000000     6.184000000    -0.446000000
O     1.085000000    -3.632000000    -4.402000000
H     0.481000000    -3.927000000    -3.721000000
H     1.651000000    -2.998000000    -3.963000000
O     0.479000000     3.086000000    -7.686000000
H     1.315000000     2.722000000    -7.974000000
H     0.719000000     3.801000000    -7.096000000
O     2.131000000    -4.793000000     4.540000000
H     2.825000000    -4.144000000     4.654000000
H     2.083000000    -5.244000000     5.383000000
O    -4.523000000    -2.099000000     1.270000000
H    -5.321000000    -2.360000000     1.730000000
H    -4.667000000    -1.181000000     1.043000000
O     1.330000000    -1.330000000     4.454000000
H     1.855000000    -1.989000000     4.907000000
H     1.963000000    -0.837000000     3.932000000
O    -4.455000000    -2.844000000    -1.440000000
H    -5.133000000    -2.634000000    -0.797000000
H    -3.646000000    -2.884000000    -0.930000000
O     2.710000000     1.499000000     5.628000000
H     1.757000000     1.455000000     5.554000000
H     3.031000000     0.947000000     4.915000000
