158
-3031.51619
C    -1.131000000     0.772000000     0.732000000
H    -1.640000000     1.470000000     1.392000000
C     0.084000000     0.339000000     1.267000000
H     0.363000000     0.666000000     2.266000000
C     1.020000000    -0.472000000     0.529000000
H     1.957000000    -0.874000000     0.837000000
C     0.662000000    -0.748000000    -0.785000000
H     1.266000000    -1.468000000    -1.331000000
C    -0.493000000    -0.321000000    -1.317000000
H    -0.619000000    -0.772000000    -2.298000000
C    -1.406000000     0.501000000    -0.623000000
C    -2.521000000     1.130000000    -1.391000000
O    -3.244000000     1.971000000    -0.808000000
O    -2.774000000     0.805000000    -2.528000000
O    -1.913000000    -2.168000000     0.964000000
H    -2.491000000    -2.021000000     0.216000000
H    -1.278000000    -1.452000000     0.920000000
O    -6.965000000     1.046000000    -3.596000000
H    -7.345000000     0.676000000    -4.394000000
H    -6.094000000     1.341000000    -3.860000000
O     0.067000000    -0.115000000     5.768000000
H    -0.264000000    -0.527000000     4.970000000
H     1.019000000    -0.141000000     5.674000000
O    -0.498000000     4.321000000     1.199000000
H    -0.126000000     5.001000000     1.761000000
H    -0.929000000     3.718000000     1.805000000
O     1.342000000     3.395000000    -0.424000000
H     0.805000000     3.822000000     0.243000000
H     2.146000000     3.913000000    -0.453000000
O    -5.198000000     4.476000000    -5.332000000
H    -6.149000000     4.410000000    -5.414000000
H    -5.000000000     4.054000000    -4.496000000
O    -7.059000000     3.775000000     2.457000000
H    -6.726000000     4.231000000     3.230000000
H    -6.293000000     3.336000000     2.089000000
O     3.835000000    -1.225000000    -3.148000000
H     3.901000000    -0.439000000    -2.606000000
H     3.909000000    -1.951000000    -2.528000000
O     2.894000000    -1.871000000     6.123000000
H     3.240000000    -0.980000000     6.065000000
H     3.652000000    -2.407000000     6.357000000
O    -4.221000000    -0.590000000     2.170000000
H    -4.585000000    -0.560000000     1.285000000
H    -4.653000000     0.129000000     2.631000000
O    -5.777000000    -1.864000000    -2.574000000
H    -4.820000000    -1.833000000    -2.575000000
H    -6.043000000    -1.049000000    -3.000000000
O    -0.573000000    -4.018000000    -4.456000000
H    -0.618000000    -4.109000000    -3.504000000
H    -0.246000000    -4.864000000    -4.761000000
O    -2.311000000     4.414000000    -0.661000000
H    -2.788000000     3.651000000    -0.336000000
H    -1.509000000     4.435000000    -0.138000000
O    -0.722000000     1.007000000    -4.233000000
H     0.000000000     1.082000000    -3.609000000
H    -1.499000000     0.885000000    -3.687000000
O    -2.870000000     1.593000000     4.209000000
H    -3.120000000     2.317000000     3.635000000
H    -2.671000000     2.010000000     5.047000000
O    -4.509000000     1.266000000    -4.494000000
H    -3.860000000     0.894000000    -5.092000000
H    -4.086000000     1.243000000    -3.636000000
O     2.063000000     2.849000000     2.707000000
H     1.815000000     2.037000000     2.265000000
H     1.239000000     3.196000000     3.051000000
O    -7.728000000     4.002000000    -2.084000000
H    -8.148000000     3.953000000    -2.943000000
H    -6.804000000     3.824000000    -2.259000000
O    -5.991000000    -1.167000000     0.320000000
H    -6.656000000    -1.687000000     0.771000000
H    -5.960000000    -1.533000000    -0.564000000
O     1.950000000    -4.161000000    -2.460000000
H     2.475000000    -4.555000000    -3.157000000
H     2.569000000    -4.026000000    -1.743000000
O     1.524000000     1.658000000    -2.588000000
H     2.029000000     1.096000000    -2.001000000
H     1.258000000     2.397000000    -2.041000000
O     4.327000000     2.687000000     4.459000000
H     4.516000000     1.752000000     4.542000000
H     3.469000000     2.722000000     4.035000000
O     3.045000000    -5.669000000     0.075000000
H     2.091000000    -5.653000000     0.143000000
H     3.329000000    -6.222000000     0.802000000
O     1.066000000    -1.774000000    -3.840000000
H     1.036000000    -2.705000000    -3.621000000
H     1.961000000    -1.507000000    -3.633000000
O    -4.255000000     6.194000000    -0.716000000
H    -3.674000000     5.453000000    -0.539000000
H    -3.664000000     6.912000000    -0.943000000
O     7.081000000    -2.455000000     2.919000000
H     6.727000000    -2.316000000     2.040000000
H     7.301000000    -3.386000000     2.945000000
O    -0.218000000     3.546000000     4.151000000
H     0.099000000     4.106000000     4.860000000
H    -0.951000000     3.065000000     4.535000000
O     1.218000000     2.330000000    -6.120000000
H     0.746000000     1.802000000    -5.477000000
H     0.799000000     3.190000000    -6.078000000
O    -5.237000000     2.642000000     0.725000000
H    -4.683000000     2.215000000     0.071000000
H    -6.044000000     2.128000000     0.728000000
O     0.482000000    -4.526000000     0.995000000
H     1.324000000    -4.306000000     1.392000000
H    -0.165000000    -4.301000000     1.664000000
O    -1.583000000    -1.716000000    -5.286000000
H    -0.950000000    -1.052000000    -5.012000000
H    -1.149000000    -2.550000000    -5.105000000
O    -4.855000000     4.206000000    -2.572000000
H    -4.695000000     5.111000000    -2.304000000
H    -4.248000000     3.689000000    -2.043000000
O    -1.673000000    -4.076000000     2.811000000
H    -1.884000000    -3.346000000     2.229000000
H    -1.597000000    -3.678000000     3.678000000
O    -3.185000000    -1.742000000    -2.935000000
H    -2.666000000    -1.894000000    -3.724000000
H    -2.981000000    -0.842000000    -2.683000000
O     2.977000000    -3.373000000     1.892000000
H     2.954000000    -2.781000000     1.140000000
H     3.614000000    -4.045000000     1.649000000
O     3.654000000    -2.246000000    -0.391000000
H     4.229000000    -1.480000000    -0.371000000
H     4.170000000    -2.943000000     0.014000000
O    -1.698000000    -0.985000000     3.741000000
H    -2.015000000    -1.342000000     2.911000000
H    -2.211000000    -0.187000000     3.870000000
O    -7.298000000     1.148000000     0.471000000
H    -7.989000000     1.067000000     1.128000000
H    -6.787000000     0.343000000     0.560000000
O    -1.656000000     3.694000000    -3.221000000
H    -1.980000000     3.864000000    -2.336000000
H    -1.741000000     2.746000000    -3.329000000
O     5.456000000    -3.916000000     0.594000000
H     5.556000000    -4.746000000     1.060000000
H     6.159000000    -3.920000000    -0.055000000
O     1.711000000    -4.021000000     4.312000000
H     2.130000000    -3.455000000     4.960000000
H     2.148000000    -3.808000000     3.488000000
O    -3.538000000     3.595000000     2.437000000
H    -3.702000000     4.533000000     2.341000000
H    -4.193000000     3.179000000     1.876000000
O     4.082000000    -0.400000000     3.527000000
H     3.153000000    -0.575000000     3.673000000
H     4.531000000    -0.910000000     4.202000000
O     4.478000000     0.895000000    -1.283000000
H     4.840000000     1.742000000    -1.542000000
H     4.809000000     0.754000000    -0.396000000
O    -0.532000000    -4.789000000    -1.570000000
H    -0.410000000    -4.650000000    -0.631000000
H     0.347000000    -4.706000000    -1.940000000
O     2.826000000     0.853000000     6.260000000
H     3.096000000     1.721000000     5.959000000
H     2.186000000     1.028000000     6.950000000
O     5.611000000     0.122000000     1.081000000
H     5.138000000    -0.307000000     1.794000000
H     6.082000000     0.841000000     1.504000000
O     8.171000000    -0.255000000    -0.017000000
H     8.011000000    -0.256000000    -0.961000000
H     7.335000000     0.010000000     0.367000000
