158
-3051.41304
C     0.344000000     0.877000000     1.102000000
H     0.602000000     1.394000000     2.022000000
C     0.334000000    -0.526000000     1.171000000
H     0.480000000    -1.088000000     2.090000000
C     0.009000000    -1.257000000    -0.010000000
H    -0.033000000    -2.347000000    -0.010000000
C    -0.266000000    -0.544000000    -1.145000000
H    -0.626000000    -1.097000000    -2.009000000
C    -0.284000000     0.896000000    -1.202000000
H    -0.724000000     1.424000000    -2.043000000
C     0.081000000     1.598000000    -0.054000000
C     0.108000000     3.116000000    -0.020000000
O     0.788000000     3.596000000     0.898000000
O    -0.526000000     3.814000000    -0.792000000
O    -1.679000000     4.225000000    -5.555000000
H    -1.838000000     4.399000000    -4.627000000
H    -2.179000000     3.431000000    -5.740000000
O    -1.223000000     3.720000000     2.924000000
H    -1.203000000     4.677000000     2.936000000
H    -0.380000000     3.467000000     2.548000000
O    -0.661000000     7.739000000    -3.786000000
H    -1.045000000     7.775000000    -4.662000000
H    -0.810000000     6.839000000    -3.497000000
O     4.576000000     1.844000000     2.705000000
H     4.068000000     1.904000000     1.896000000
H     4.118000000     1.185000000     3.226000000
O     4.042000000    -0.713000000    -1.419000000
H     3.651000000    -0.845000000    -2.283000000
H     4.500000000     0.125000000    -1.490000000
O    -2.200000000     1.914000000     4.731000000
H    -2.030000000     2.555000000     4.041000000
H    -1.525000000     2.085000000     5.388000000
O    -5.413000000    -3.879000000    -0.525000000
H    -5.617000000    -3.331000000     0.232000000
H    -4.483000000    -4.082000000    -0.431000000
O     1.196000000     6.117000000     1.474000000
H     0.987000000     6.597000000     0.673000000
H     1.307000000     5.210000000     1.187000000
O    -3.510000000     2.661000000     1.655000000
H    -2.686000000     2.811000000     2.119000000
H    -3.417000000     1.786000000     1.279000000
O    -1.483000000     6.348000000     3.570000000
H    -0.562000000     6.419000000     3.822000000
H    -1.564000000     6.907000000     2.797000000
O     1.410000000     6.806000000     4.072000000
H     2.312000000     6.791000000     4.392000000
H     1.440000000     6.324000000     3.246000000
O    -3.966000000    -0.737000000    -1.232000000
H    -4.032000000    -1.231000000    -2.049000000
H    -4.678000000    -0.100000000    -1.279000000
O    -2.619000000    -3.750000000     0.493000000
H    -2.520000000    -3.534000000     1.420000000
H    -2.102000000    -3.087000000     0.036000000
O    -1.531000000     5.088000000    -2.852000000
H    -2.451000000     4.912000000    -2.653000000
H    -1.055000000     4.770000000    -2.085000000
O    -0.230000000    -4.998000000    -2.913000000
H    -0.259000000    -4.658000000    -3.807000000
H     0.703000000    -5.032000000    -2.701000000
O     2.556000000     4.038000000     2.953000000
H     3.389000000     3.909000000     2.500000000
H     1.901000000     4.040000000     2.254000000
O     1.685000000    -0.575000000    -3.616000000
H     2.084000000    -1.445000000    -3.587000000
H     0.910000000    -0.648000000    -3.060000000
O     3.639000000     1.343000000    -4.435000000
H     2.812000000     0.898000000    -4.247000000
H     3.916000000     0.986000000    -5.279000000
O    -3.476000000    -6.309000000     0.443000000
H    -2.908000000    -6.697000000    -0.223000000
H    -3.213000000    -5.389000000     0.476000000
O     4.302000000     3.030000000     5.109000000
H     3.346000000     3.039000000     5.072000000
H     4.573000000     2.717000000     4.246000000
O     0.640000000    -7.538000000     0.787000000
H     1.068000000    -8.380000000     0.946000000
H     0.707000000    -7.074000000     1.621000000
O    -1.262000000    -0.773000000    -5.738000000
H    -1.065000000     0.030000000    -5.256000000
H    -0.495000000    -0.912000000    -6.294000000
O    -1.471000000     7.848000000     1.376000000
H    -1.836000000     7.030000000     1.037000000
H    -1.196000000     8.329000000     0.595000000
O    -3.406000000    -1.597000000    -3.888000000
H    -3.365000000    -2.506000000    -3.590000000
H    -2.744000000    -1.540000000    -4.577000000
O    -1.849000000    -2.970000000     2.930000000
H    -1.387000000    -3.726000000     3.292000000
H    -1.685000000    -2.265000000     3.556000000
O     3.281000000     2.320000000     0.274000000
H     2.426000000     2.652000000     0.550000000
H     3.270000000     2.395000000    -0.680000000
O     2.395000000    -5.744000000    -2.523000000
H     3.237000000    -5.636000000    -2.966000000
H     1.906000000    -6.347000000    -3.083000000
O     3.680000000    -1.551000000     1.079000000
H     4.618000000    -1.662000000     1.233000000
H     3.624000000    -1.164000000     0.205000000
O    -3.369000000     3.259000000    -2.441000000
H    -3.498000000     2.997000000    -1.529000000
H    -3.550000000     2.465000000    -2.945000000
O     3.790000000    -3.834000000     4.440000000
H     3.031000000    -4.081000000     4.970000000
H     3.428000000    -3.655000000     3.573000000
O    -0.046000000     1.709000000    -5.235000000
H     0.613000000     1.532000000    -4.564000000
H    -0.079000000     2.664000000    -5.293000000
O     2.395000000    -3.481000000     2.261000000
H     2.570000000    -4.141000000     1.590000000
H     2.628000000    -2.650000000     1.847000000
O     0.261000000    -0.619000000     4.880000000
H    -0.375000000    -1.136000000     5.374000000
H     0.028000000     0.291000000     5.068000000
O    -4.280000000     0.921000000    -3.753000000
H    -4.111000000     0.004000000    -3.966000000
H    -5.229000000     0.970000000    -3.639000000
O     2.652000000    -0.013000000     3.774000000
H     2.741000000    -0.340000000     2.879000000
H     1.714000000    -0.061000000     3.955000000
O     2.874000000    -2.799000000    -2.878000000
H     3.746000000    -2.986000000    -2.531000000
H     2.345000000    -3.553000000    -2.614000000
O    -4.789000000    -1.384000000     2.668000000
H    -5.259000000    -0.550000000     2.640000000
H    -3.956000000    -1.204000000     2.233000000
O    -3.204000000     1.861000000    -6.142000000
H    -4.055000000     2.115000000    -6.499000000
H    -3.405000000     1.499000000    -5.279000000
O    -2.280000000     5.568000000     0.237000000
H    -1.529000000     5.029000000    -0.012000000
H    -2.850000000     4.974000000     0.726000000
O     1.258000000     4.167000000    -4.010000000
H     0.480000000     4.238000000    -3.458000000
H     1.298000000     5.002000000    -4.477000000
O     1.248000000    -1.891000000    -6.321000000
H     1.593000000    -1.419000000    -5.563000000
H     1.904000000    -1.756000000    -7.006000000
O     4.956000000    -3.344000000    -1.455000000
H     4.811000000    -2.633000000    -0.831000000
H     5.151000000    -4.105000000    -0.909000000
O     2.750000000    -5.130000000     0.158000000
H     3.631000000    -5.376000000    -0.125000000
H     2.170000000    -5.521000000    -0.495000000
O     0.833000000    -3.409000000     4.653000000
H     1.196000000    -3.543000000     3.778000000
H     0.834000000    -2.459000000     4.771000000
O    -2.901000000    -3.870000000    -2.660000000
H    -2.169000000    -4.482000000    -2.729000000
H    -3.603000000    -4.380000000    -2.257000000
O    -1.168000000    -6.721000000    -1.128000000
H    -0.709000000    -6.075000000    -1.665000000
H    -0.503000000    -7.041000000    -0.518000000
O     3.787000000     3.823000000    -2.857000000
H     3.766000000     3.042000000    -3.410000000
H     2.868000000     4.077000000    -2.766000000
O    -2.821000000     0.312000000     0.986000000
H    -1.876000000     0.168000000     0.930000000
H    -3.164000000    -0.021000000     0.157000000
