158
-3027.16414
C     0.398000000     1.054000000     0.970000000
H     0.712000000     1.772000000     1.724000000
C     0.258000000    -0.345000000     1.296000000
H     0.604000000    -0.681000000     2.270000000
C    -0.161000000    -1.206000000     0.281000000
H    -0.154000000    -2.303000000     0.318000000
C    -0.469000000    -0.714000000    -0.970000000
H    -0.752000000    -1.460000000    -1.707000000
C    -0.409000000     0.678000000    -1.228000000
H    -0.590000000     1.150000000    -2.190000000
C     0.026000000     1.547000000    -0.245000000
C     0.244000000     2.974000000    -0.643000000
O     1.204000000     3.566000000    -0.155000000
O    -0.239000000     3.477000000    -1.647000000
O    -2.614000000     5.088000000    -5.264000000
H    -2.514000000     4.210000000    -4.896000000
H    -2.300000000     5.673000000    -4.574000000
O    -3.966000000    -4.214000000     1.651000000
H    -3.383000000    -3.485000000     1.438000000
H    -3.670000000    -4.930000000     1.089000000
O     3.347000000     6.701000000    -0.128000000
H     2.758000000     6.351000000    -0.797000000
H     3.777000000     5.929000000     0.240000000
O     0.677000000     3.563000000     6.703000000
H     1.069000000     2.772000000     6.332000000
H     0.369000000     3.294000000     7.568000000
O    -1.941000000     3.582000000     3.071000000
H    -2.537000000     3.538000000     2.324000000
H    -1.114000000     3.891000000     2.700000000
O     1.534000000     1.005000000     5.324000000
H     0.628000000     0.699000000     5.292000000
H     1.684000000     1.401000000     4.466000000
O     5.105000000    -5.918000000     0.014000000
H     4.280000000    -5.605000000     0.386000000
H     5.263000000    -6.754000000     0.452000000
O     4.564000000     1.939000000     2.429000000
H     4.994000000     1.179000000     2.822000000
H     3.633000000     1.806000000     2.606000000
O    -1.314000000     5.049000000     5.388000000
H    -1.607000000     4.650000000     4.569000000
H    -0.638000000     4.455000000     5.715000000
O     0.981000000     5.839000000    -2.127000000
H     0.239000000     6.405000000    -2.341000000
H     0.599000000     4.964000000    -2.048000000
O     0.036000000     7.453000000     0.668000000
H     0.573000000     7.384000000    -0.122000000
H    -0.793000000     7.820000000     0.362000000
O    -3.756000000    -0.873000000    -1.350000000
H    -3.769000000    -1.812000000    -1.538000000
H    -3.104000000    -0.517000000    -1.954000000
O    -1.865000000    -6.156000000     0.316000000
H    -1.379000000    -5.667000000     0.979000000
H    -1.361000000    -6.035000000    -0.489000000
O    -1.033000000     2.621000000    -4.161000000
H    -0.637000000     2.985000000    -3.369000000
H    -0.302000000     2.222000000    -4.633000000
O    -5.216000000     0.989000000    -0.292000000
H    -5.352000000     1.508000000    -1.085000000
H    -4.762000000     0.202000000    -0.596000000
O    -0.690000000    -6.174000000    -2.444000000
H    -0.230000000    -6.983000000    -2.669000000
H    -0.785000000    -5.713000000    -3.277000000
O     0.288000000     4.771000000     2.101000000
H     0.127000000     5.671000000     1.815000000
H     0.722000000     4.358000000     1.354000000
O     2.446000000    -1.115000000    -1.112000000
H     2.414000000    -2.045000000    -1.334000000
H     1.611000000    -0.943000000    -0.677000000
O     3.281000000     1.319000000    -5.811000000
H     2.849000000     1.045000000    -5.001000000
H     2.664000000     1.926000000    -6.218000000
O     5.317000000    -4.235000000     2.107000000
H     5.735000000    -4.976000000     2.545000000
H     4.598000000    -3.988000000     2.688000000
O     4.968000000    -0.007000000    -1.326000000
H     4.063000000    -0.319000000    -1.326000000
H     5.485000000    -0.774000000    -1.574000000
O    -1.558000000    -5.957000000     4.215000000
H    -1.462000000    -5.617000000     5.104000000
H    -1.193000000    -6.841000000     4.256000000
O    -1.457000000     0.323000000    -6.809000000
H    -0.610000000     0.083000000    -6.434000000
H    -1.238000000     0.826000000    -7.593000000
O    -1.175000000     7.696000000    -2.298000000
H    -1.801000000     7.056000000    -1.959000000
H    -1.590000000     8.041000000    -3.089000000
O    -2.842000000     6.857000000     0.223000000
H    -3.012000000     6.228000000    -0.478000000
H    -3.632000000     6.832000000     0.763000000
O    -0.559000000    -4.356000000     2.302000000
H    -0.390000000    -3.533000000     2.762000000
H    -0.947000000    -4.926000000     2.966000000
O     1.811000000     3.098000000     3.619000000
H     2.139000000     3.736000000     4.254000000
H     1.279000000     3.615000000     3.014000000
O     2.459000000    -3.419000000     3.430000000
H     1.702000000    -3.044000000     3.881000000
H     2.694000000    -2.765000000     2.772000000
O    -3.747000000     2.744000000    -3.037000000
H    -4.444000000     2.262000000    -3.482000000
H    -2.939000000     2.416000000    -3.432000000
O     2.434000000     0.723000000    -3.187000000
H     2.492000000     0.206000000    -2.383000000
H     2.446000000     1.632000000    -2.888000000
O     2.848000000    -6.013000000     4.598000000
H     2.770000000    -5.074000000     4.427000000
H     3.584000000    -6.086000000     5.205000000
O    -1.218000000     0.288000000     6.057000000
H    -1.165000000    -0.226000000     6.863000000
H    -1.397000000     1.180000000     6.353000000
O    -1.548000000    -3.259000000    -3.504000000
H    -1.408000000    -2.356000000    -3.220000000
H    -2.446000000    -3.457000000    -3.237000000
O    -2.424000000    -0.147000000    -3.976000000
H    -1.703000000    -0.221000000    -4.602000000
H    -2.955000000     0.578000000    -4.307000000
O     2.021000000    -3.919000000    -1.514000000
H     2.612000000    -4.519000000    -1.968000000
H     1.663000000    -4.436000000    -0.792000000
O    -2.507000000     4.715000000    -1.487000000
H    -1.686000000     4.237000000    -1.607000000
H    -3.183000000     4.108000000    -1.787000000
O     3.011000000     3.064000000    -2.076000000
H     2.294000000     3.352000000    -1.510000000
H     3.791000000     3.471000000    -1.700000000
O     0.760000000    -0.202000000    -5.021000000
H     1.430000000    -0.704000000    -5.484000000
H     1.166000000     0.024000000    -4.184000000
O     3.479000000    -2.133000000     1.282000000
H     3.797000000    -3.013000000     1.082000000
H     3.478000000    -1.681000000     0.438000000
O     1.511000000    -5.716000000     0.458000000
H     1.377000000    -6.657000000     0.342000000
H     1.116000000    -5.521000000     1.307000000
O     3.230000000     5.973000000    -3.619000000
H     3.375000000     5.027000000    -3.599000000
H     2.451000000     6.108000000    -3.080000000
O     0.360000000    -2.502000000     4.819000000
H     0.447000000    -2.656000000     5.760000000
H    -0.521000000    -2.142000000     4.715000000
O    -0.474000000    -5.153000000    -5.068000000
H    -0.667000000    -4.349000000    -4.586000000
H    -0.303000000    -4.860000000    -5.964000000
O    -5.146000000    -3.048000000     3.744000000
H    -4.699000000    -3.211000000     2.913000000
H    -5.096000000    -3.882000000     4.211000000
O    -3.291000000    -1.408000000     1.803000000
H    -2.938000000    -0.579000000     2.126000000
H    -3.344000000    -1.293000000     0.855000000
O    -3.874000000    -3.535000000    -1.798000000
H    -4.637000000    -3.521000000    -2.375000000
H    -3.454000000    -4.377000000    -1.978000000
O     4.019000000     4.134000000     0.663000000
H     3.103000000     3.855000000     0.646000000
H     4.465000000     3.462000000     1.178000000
O     4.809000000    -2.753000000     5.451000000
H     4.315000000    -2.721000000     6.271000000
H     4.166000000    -2.534000000     4.776000000
