158
-3040.94238
C     0.316000000     0.575000000     1.348000000
H     0.602000000     0.884000000     2.350000000
C    -0.138000000    -0.720000000     1.091000000
H    -0.186000000    -1.397000000     1.940000000
C    -0.361000000    -1.206000000    -0.215000000
H    -0.626000000    -2.232000000    -0.426000000
C    -0.123000000    -0.298000000    -1.214000000
H    -0.285000000    -0.738000000    -2.195000000
C     0.030000000     1.076000000    -0.946000000
H    -0.001000000     1.767000000    -1.785000000
C     0.312000000     1.537000000     0.323000000
C     0.684000000     3.089000000     0.534000000
O     0.950000000     3.435000000     1.675000000
O     0.443000000     3.880000000    -0.356000000
O    -0.564000000     4.048000000     6.202000000
H    -0.394000000     4.252000000     7.122000000
H     0.180000000     4.425000000     5.733000000
O     0.710000000     3.857000000    -5.101000000
H     0.413000000     3.411000000    -5.894000000
H    -0.093000000     4.177000000    -4.691000000
O     1.263000000     7.721000000    -0.418000000
H     2.185000000     7.465000000    -0.388000000
H     1.277000000     8.675000000    -0.350000000
O    -6.186000000    -2.672000000    -3.281000000
H    -6.254000000    -2.252000000    -4.139000000
H    -5.349000000    -2.367000000    -2.931000000
O     1.164000000     4.630000000     4.322000000
H     2.112000000     4.764000000     4.325000000
H     0.993000000     4.146000000     3.514000000
O     2.439000000    -7.433000000     2.140000000
H     3.013000000    -6.987000000     1.517000000
H     1.589000000    -7.007000000     2.030000000
O     3.094000000     6.123000000    -3.537000000
H     2.473000000     6.746000000    -3.915000000
H     2.562000000     5.576000000    -2.959000000
O     2.980000000    -1.002000000    -0.350000000
H     3.058000000    -0.856000000    -1.293000000
H     2.069000000    -0.788000000    -0.149000000
O    -3.872000000     1.392000000     0.103000000
H    -3.749000000     1.563000000     1.037000000
H    -4.814000000     1.245000000     0.009000000
O    -2.632000000    -5.852000000    -2.014000000
H    -2.167000000    -6.595000000    -1.630000000
H    -2.551000000    -5.156000000    -1.362000000
O     3.099000000     4.981000000     1.278000000
H     3.589000000     4.759000000     2.070000000
H     2.344000000     4.393000000     1.291000000
O    -3.647000000     1.815000000     2.943000000
H    -3.229000000     2.653000000     2.743000000
H    -3.340000000     1.599000000     3.824000000
O     3.502000000     2.640000000     5.880000000
H     3.345000000     3.472000000     5.434000000
H     3.452000000     2.854000000     6.811000000
O    -4.345000000    -2.154000000    -0.666000000
H    -4.193000000    -2.570000000    -1.515000000
H    -5.288000000    -2.239000000    -0.523000000
O    -1.259000000     4.584000000    -2.761000000
H    -2.036000000     4.056000000    -2.574000000
H    -1.143000000     5.123000000    -1.979000000
O    -0.565000000     6.914000000     3.858000000
H    -0.687000000     6.494000000     3.007000000
H     0.152000000     6.427000000     4.265000000
O     0.890000000    -5.534000000    -1.635000000
H     1.675000000    -6.040000000    -1.424000000
H     1.157000000    -4.971000000    -2.362000000
O     3.925000000     0.720000000     3.871000000
H     3.797000000     1.268000000     3.097000000
H     3.819000000     1.319000000     4.610000000
O     1.039000000    -3.051000000    -3.285000000
H     1.086000000    -2.352000000    -2.634000000
H     1.889000000    -3.488000000    -3.230000000
O     4.151000000     7.403000000     2.517000000
H     5.093000000     7.253000000     2.431000000
H     3.751000000     6.739000000     1.955000000
O     3.898000000     0.333000000    -2.886000000
H     4.703000000     0.136000000    -3.366000000
H     3.224000000     0.395000000    -3.563000000
O    -3.087000000    -4.916000000     0.400000000
H    -3.456000000    -5.051000000     1.273000000
H    -3.661000000    -4.265000000    -0.004000000
O    -2.186000000     1.779000000     5.489000000
H    -2.171000000     1.441000000     6.384000000
H    -1.539000000     2.484000000     5.488000000
O    -3.504000000    -3.278000000    -2.824000000
H    -3.582000000    -4.207000000    -3.041000000
H    -2.820000000    -2.952000000    -3.408000000
O    -3.318000000     6.894000000     0.382000000
H    -3.973000000     6.407000000     0.884000000
H    -2.488000000     6.468000000     0.596000000
O    -3.163000000    -0.992000000     4.650000000
H    -3.101000000    -0.927000000     3.697000000
H    -2.898000000    -0.128000000     4.966000000
O     3.295000000     2.144000000     1.808000000
H     2.437000000     2.461000000     2.089000000
H     3.244000000     2.129000000     0.852000000
O     3.514000000    -3.795000000    -2.875000000
H     4.149000000    -4.161000000    -2.259000000
H     4.046000000    -3.472000000    -3.603000000
O     4.146000000    -3.159000000     1.249000000
H     4.077000000    -2.762000000     0.381000000
H     3.580000000    -2.623000000     1.804000000
O    -3.886000000     3.601000000    -1.808000000
H    -3.898000000     3.061000000    -1.018000000
H    -4.807000000     3.686000000    -2.054000000
O     3.987000000     6.722000000    -0.535000000
H     3.533000000     5.984000000    -0.129000000
H     4.856000000     6.381000000    -0.748000000
O     2.015000000     0.058000000    -4.951000000
H     1.540000000    -0.741000000    -5.179000000
H     2.586000000     0.219000000    -5.702000000
O    -1.007000000    -3.712000000     3.075000000
H    -1.599000000    -4.302000000     3.541000000
H    -1.546000000    -2.949000000     2.865000000
O     2.517000000    -1.587000000     2.770000000
H     2.778000000    -0.913000000     3.398000000
H     2.468000000    -1.127000000     1.932000000
O    -1.329000000    -2.495000000    -4.647000000
H    -1.585000000    -3.113000000    -5.331000000
H    -0.654000000    -2.956000000    -4.149000000
O    -2.255000000     0.168000000    -4.650000000
H    -2.430000000     0.383000000    -3.733000000
H    -1.609000000    -0.538000000    -4.611000000
O    -1.187000000     1.946000000    -6.556000000
H    -1.867000000     2.556000000    -6.841000000
H    -1.469000000     1.662000000    -5.686000000
O    -0.743000000     5.815000000     1.070000000
H    -0.442000000     6.667000000     0.754000000
H    -0.291000000     5.180000000     0.514000000
O     2.021000000     3.973000000    -2.414000000
H     1.487000000     4.083000000    -1.628000000
H     1.387000000     3.923000000    -3.129000000
O     3.323000000    -5.668000000     0.402000000
H     3.304000000    -4.769000000     0.731000000
H     4.032000000    -5.672000000    -0.240000000
O     1.327000000    -4.065000000     4.283000000
H     0.617000000    -4.013000000     3.643000000
H     1.937000000    -3.376000000     4.020000000
O    -1.838000000     4.001000000     2.613000000
H    -1.782000000     4.782000000     2.062000000
H    -1.028000000     3.523000000     2.434000000
O     0.078000000    -5.875000000     1.444000000
H     0.350000000    -5.543000000     0.589000000
H    -0.188000000    -5.095000000     1.931000000
O    -1.037000000     7.546000000    -2.031000000
H    -1.313000000     8.455000000    -2.143000000
H    -0.164000000     7.607000000    -1.642000000
O     3.450000000     2.229000000    -0.879000000
H     3.481000000     1.390000000    -1.339000000
H     2.908000000     2.788000000    -1.435000000
O    -3.004000000    -1.505000000     1.778000000
H    -2.521000000    -0.707000000     1.562000000
H    -3.219000000    -1.892000000     0.930000000
O    -3.633000000     0.204000000    -2.458000000
H    -3.761000000    -0.586000000    -1.933000000
H    -3.831000000     0.924000000    -1.859000000
O     5.690000000     3.895000000     2.107000000
H     6.319000000     3.533000000     1.482000000
H     5.098000000     3.167000000     2.299000000
