158
-3045.65337
C    -0.818000000     0.943000000     0.760000000
H    -1.328000000     1.631000000     1.430000000
C    -0.011000000    -0.026000000     1.339000000
H     0.073000000    -0.216000000     2.406000000
C     0.774000000    -0.845000000     0.525000000
H     1.432000000    -1.611000000     0.989000000
C     0.793000000    -0.578000000    -0.855000000
H     1.414000000    -1.140000000    -1.547000000
C    -0.068000000     0.384000000    -1.391000000
H    -0.192000000     0.382000000    -2.471000000
C    -0.898000000     1.164000000    -0.612000000
C    -1.816000000     2.241000000    -1.214000000
O    -2.265000000     3.141000000    -0.548000000
O    -2.093000000     2.159000000    -2.410000000
O     0.297000000    -2.111000000     5.485000000
H     0.183000000    -2.160000000     4.536000000
H     1.245000000    -2.114000000     5.614000000
O    -2.805000000     6.365000000    -2.610000000
H    -3.372000000     5.643000000    -2.341000000
H    -2.011000000     5.938000000    -2.931000000
O    -2.097000000    -2.493000000     6.742000000
H    -1.452000000    -2.147000000     6.125000000
H    -1.931000000    -2.016000000     7.555000000
O    -2.721000000     5.191000000     3.272000000
H    -2.422000000     6.043000000     2.955000000
H    -2.230000000     5.051000000     4.082000000
O     2.657000000     3.850000000     0.002000000
H     2.081000000     3.654000000     0.741000000
H     2.636000000     4.804000000    -0.071000000
O    -1.058000000     4.768000000    -5.750000000
H    -0.994000000     4.700000000    -4.797000000
H    -1.689000000     4.092000000    -5.996000000
O     3.893000000    -1.316000000    -4.767000000
H     4.580000000    -1.972000000    -4.649000000
H     3.861000000    -0.850000000    -3.932000000
O     1.866000000     0.328000000     7.196000000
H     2.055000000    -0.454000000     7.714000000
H     1.164000000     0.059000000     6.603000000
O    -5.635000000     1.175000000     3.257000000
H    -5.345000000     2.055000000     3.018000000
H    -6.573000000     1.270000000     3.426000000
O    -3.603000000    -0.045000000    -3.101000000
H    -3.037000000     0.637000000    -2.741000000
H    -4.324000000    -0.114000000    -2.475000000
O    -1.032000000     4.956000000     0.822000000
H    -1.481000000     4.324000000     0.261000000
H    -1.737000000     5.482000000     1.202000000
O    -0.209000000     1.469000000    -4.925000000
H     0.212000000     0.611000000    -4.871000000
H    -0.675000000     1.559000000    -4.093000000
O    -3.370000000    -0.129000000     2.554000000
H    -2.803000000     0.396000000     3.118000000
H    -4.235000000     0.273000000     2.642000000
O     0.027000000     2.978000000     4.480000000
H     0.124000000     2.645000000     5.372000000
H     0.743000000     2.572000000     3.993000000
O    -3.811000000     3.702000000    -4.009000000
H    -3.733000000     3.382000000    -4.908000000
H    -3.219000000     3.144000000    -3.504000000
O     3.920000000     3.577000000     2.925000000
H     3.111000000     3.261000000     2.523000000
H     3.648000000     3.915000000     3.779000000
O     0.637000000    -7.466000000     1.125000000
H    -0.061000000    -7.091000000     0.588000000
H     0.777000000    -8.339000000     0.759000000
O    -5.940000000     5.229000000    -4.396000000
H    -5.233000000     4.627000000    -4.164000000
H    -5.536000000     6.096000000    -4.366000000
O     3.124000000    -0.880000000     2.813000000
H     2.994000000    -1.827000000     2.752000000
H     2.932000000    -0.555000000     1.933000000
O     0.402000000    -3.722000000    -4.489000000
H    -0.122000000    -3.966000000    -3.726000000
H     1.091000000    -4.385000000    -4.527000000
O     3.310000000     0.779000000     0.581000000
H     2.357000000     0.706000000     0.628000000
H     3.540000000     1.381000000     1.288000000
O    -3.493000000    -2.989000000    -2.708000000
H    -3.557000000    -2.584000000    -1.843000000
H    -3.419000000    -2.250000000    -3.313000000
O    -5.254000000    -0.428000000    -0.947000000
H    -5.715000000    -1.190000000    -0.596000000
H    -4.329000000    -0.672000000    -0.913000000
O     3.753000000     3.047000000    -2.381000000
H     3.772000000     2.092000000    -2.325000000
H     3.344000000     3.327000000    -1.563000000
O    -1.143000000    -4.709000000    -2.435000000
H    -1.045000000    -5.150000000    -1.591000000
H    -1.989000000    -4.264000000    -2.375000000
O     1.025000000    -0.970000000    -4.256000000
H     1.975000000    -1.038000000    -4.155000000
H     0.732000000    -1.872000000    -4.382000000
O    -5.898000000     6.159000000     0.468000000
H    -5.552000000     5.296000000     0.241000000
H    -5.185000000     6.764000000     0.262000000
O    -3.985000000    -3.205000000     2.809000000
H    -4.173000000    -2.286000000     2.620000000
H    -4.346000000    -3.348000000     3.684000000
O     1.003000000     3.769000000     2.081000000
H     0.331000000     4.155000000     1.519000000
H     0.546000000     3.570000000     2.898000000
O     1.534000000     2.171000000    -6.851000000
H     1.038000000     1.787000000    -6.127000000
H     1.455000000     3.116000000    -6.721000000
O    -6.629000000     2.466000000    -1.982000000
H    -6.801000000     3.066000000    -2.708000000
H    -6.557000000     1.606000000    -2.395000000
O     1.027000000     6.603000000    -0.429000000
H     0.416000000     6.081000000     0.091000000
H     0.520000000     7.371000000    -0.694000000
O     2.281000000    -5.414000000     5.283000000
H     1.848000000    -6.087000000     4.758000000
H     2.774000000    -5.905000000     5.941000000
O     3.852000000     0.180000000    -2.351000000
H     3.223000000     0.138000000    -1.630000000
H     4.590000000    -0.354000000    -2.056000000
O     2.182000000    -3.474000000     3.071000000
H     2.506000000    -4.299000000     3.432000000
H     1.231000000    -3.580000000     3.047000000
O    -2.831000000     2.932000000    -6.653000000
H    -2.711000000     2.009000000    -6.430000000
H    -2.773000000     2.956000000    -7.608000000
O    -1.294000000    -2.264000000    -6.323000000
H    -0.744000000    -2.784000000    -5.737000000
H    -1.779000000    -2.912000000    -6.835000000
O    -3.015000000     0.223000000    -5.899000000
H    -2.124000000    -0.122000000    -5.836000000
H    -3.408000000     0.029000000    -5.048000000
O     5.928000000    -1.795000000     1.650000000
H     5.364000000    -1.883000000     2.418000000
H     6.488000000    -2.571000000     1.674000000
O    -2.471000000     2.152000000     3.813000000
H    -1.739000000     2.762000000     3.902000000
H    -3.208000000     2.700000000     3.544000000
O    -4.819000000     3.704000000    -0.181000000
H    -5.269000000     3.143000000    -0.812000000
H    -3.890000000     3.593000000    -0.382000000
O    -0.678000000     4.658000000    -3.002000000
H    -1.179000000     3.865000000    -2.812000000
H     0.118000000     4.569000000    -2.478000000
O     2.801000000    -2.734000000     6.559000000
H     2.248000000    -3.128000000     7.234000000
H     3.068000000    -3.470000000     6.007000000
O    -1.348000000    -3.711000000     3.179000000
H    -2.199000000    -3.649000000     2.746000000
H    -1.465000000    -4.394000000     3.839000000
O    -4.737000000     3.709000000     2.586000000
H    -4.857000000     3.958000000     1.670000000
H    -3.966000000     4.202000000     2.868000000
O     2.362000000     1.435000000     4.131000000
H     3.114000000     1.602000000     4.699000000
H     2.523000000     0.563000000     3.771000000
O    -2.930000000    -1.296000000    -0.339000000
H    -3.189000000    -0.844000000     0.464000000
H    -1.996000000    -1.108000000    -0.429000000
O     5.991000000     0.296000000    -0.368000000
H     5.109000000     0.527000000    -0.075000000
H     6.225000000    -0.469000000     0.158000000
