158
-2988.74772
C     0.476000000     1.224000000     0.776000000
H     0.724000000     2.072000000     1.408000000
C     0.517000000    -0.095000000     1.298000000
H     0.791000000    -0.249000000     2.338000000
C     0.034000000    -1.072000000     0.485000000
H     0.130000000    -2.130000000     0.918000000
C    -0.603000000    -0.785000000    -0.713000000
H    -0.985000000    -1.677000000    -1.202000000
C    -0.480000000     0.467000000    -1.260000000
H    -0.844000000     0.462000000    -2.284000000
C     0.153000000     1.431000000    -0.562000000
C     0.285000000     2.868000000    -1.097000000
O     1.071000000     3.610000000    -0.538000000
O    -0.213000000     3.261000000    -2.152000000
O     3.240000000     7.989000000     0.011000000
H     2.614000000     7.366000000    -0.358000000
H     3.753000000     7.472000000     0.632000000
O     0.976000000     1.511000000     5.190000000
H     1.025000000     0.626000000     4.830000000
H     0.061000000     1.767000000     5.072000000
O     1.219000000    -7.644000000     2.784000000
H     0.953000000    -7.404000000     3.671000000
H     1.542000000    -6.827000000     2.402000000
O    -1.516000000     4.892000000     3.411000000
H    -1.838000000     3.990000000     3.404000000
H    -0.964000000     4.955000000     2.632000000
O     2.358000000     2.876000000     3.373000000
H     1.919000000     2.291000000     3.991000000
H     1.993000000     3.741000000     3.561000000
O     4.540000000    -2.992000000     1.059000000
H     3.901000000    -3.189000000     1.744000000
H     5.039000000    -3.802000000     0.956000000
O    -2.615000000     6.511000000     0.127000000
H    -1.859000000     6.289000000     0.671000000
H    -2.338000000     7.285000000    -0.363000000
O     4.734000000     3.607000000     2.099000000
H     4.579000000     3.121000000     1.288000000
H     3.918000000     3.516000000     2.591000000
O    -3.037000000    -3.771000000    -2.994000000
H    -3.957000000    -3.967000000    -3.170000000
H    -2.920000000    -2.872000000    -3.302000000
O     1.566000000     6.155000000    -1.232000000
H     0.798000000     6.314000000    -1.781000000
H     1.622000000     5.202000000    -1.167000000
O    -2.483000000     0.835000000     1.648000000
H    -3.073000000     0.115000000     1.870000000
H    -1.659000000     0.406000000     1.415000000
O    -5.694000000    -4.642000000     1.475000000
H    -4.844000000    -4.207000000     1.531000000
H    -5.509000000    -5.476000000     1.043000000
O    -2.654000000     2.664000000    -3.715000000
H    -3.309000000     2.393000000    -3.072000000
H    -1.988000000     3.120000000    -3.200000000
O    -4.414000000    -1.286000000     0.921000000
H    -4.876000000    -0.673000000     0.349000000
H    -4.135000000    -1.993000000     0.340000000
O     5.096000000     0.787000000     4.186000000
H     4.511000000     0.488000000     3.489000000
H     5.804000000     0.143000000     4.196000000
O    -1.631000000    -4.452000000    -0.855000000
H    -1.659000000    -3.551000000    -1.177000000
H    -1.899000000    -4.983000000    -1.604000000
O    -0.225000000     5.340000000     0.955000000
H     0.064000000     5.780000000     0.156000000
H     0.308000000     4.546000000     0.998000000
O     1.554000000     0.249000000    -4.460000000
H     1.718000000    -0.481000000    -5.057000000
H     0.663000000     0.531000000    -4.665000000
O     2.874000000     2.271000000    -6.064000000
H     2.408000000     1.737000000    -5.421000000
H     2.326000000     3.048000000    -6.173000000
O     4.066000000    -4.077000000     3.583000000
H     4.081000000    -5.018000000     3.405000000
H     3.299000000    -3.952000000     4.143000000
O     4.900000000     5.072000000    -1.454000000
H     4.540000000     5.227000000    -2.327000000
H     4.194000000     4.636000000    -0.977000000
O     3.591000000     0.692000000    -2.398000000
H     3.134000000     0.620000000    -3.235000000
H     3.551000000    -0.189000000    -2.027000000
O    -0.913000000     0.960000000    -5.141000000
H    -1.475000000     1.255000000    -4.425000000
H    -1.413000000     1.155000000    -5.934000000
O     1.055000000     4.486000000    -5.875000000
H     0.178000000     4.199000000    -6.131000000
H     0.904000000     5.116000000    -5.171000000
O     3.900000000     5.199000000    -3.981000000
H     3.991000000     5.212000000    -4.933000000
H     3.152000000     4.623000000    -3.820000000
O     0.609000000     6.973000000    -4.612000000
H    -0.074000000     6.877000000    -3.949000000
H     0.210000000     7.519000000    -5.290000000
O    -4.387000000     4.451000000     0.208000000
H    -4.120000000     3.770000000    -0.410000000
H    -3.724000000     5.135000000     0.112000000
O    -2.046000000    -2.187000000     3.321000000
H    -2.171000000    -2.144000000     4.269000000
H    -1.147000000    -1.889000000     3.183000000
O     3.707000000    -1.790000000    -1.187000000
H     3.956000000    -2.626000000    -1.581000000
H     3.901000000    -1.897000000    -0.256000000
O    -2.476000000    -7.414000000    -0.533000000
H    -1.961000000    -7.380000000    -1.339000000
H    -2.425000000    -6.527000000    -0.178000000
O     1.906000000    -4.315000000     5.110000000
H     1.475000000    -5.139000000     4.881000000
H     2.328000000    -4.492000000     5.951000000
O    -3.265000000     2.230000000    -0.779000000
H    -3.325000000     1.285000000    -0.920000000
H    -2.538000000     2.336000000    -0.166000000
O     1.093000000    -4.480000000    -4.912000000
H     0.442000000    -5.012000000    -5.370000000
H     0.593000000    -3.751000000    -4.547000000
O     2.297000000     3.242000000    -3.197000000
H     2.541000000     2.331000000    -3.034000000
H     1.402000000     3.312000000    -2.866000000
O    -1.464000000     1.899000000     4.404000000
H    -2.219000000     2.167000000     3.879000000
H    -1.845000000     1.469000000     5.169000000
O    -3.075000000    -1.294000000    -4.562000000
H    -3.652000000    -0.617000000    -4.208000000
H    -2.801000000    -0.953000000    -5.413000000
O    -4.855000000    -0.055000000    -1.387000000
H    -5.409000000     0.541000000    -0.883000000
H    -4.889000000     0.285000000    -2.281000000
O     1.394000000    -3.958000000    -0.420000000
H     0.522000000    -4.351000000    -0.446000000
H     1.417000000    -3.376000000    -1.180000000
O    -1.556000000     4.595000000    -5.585000000
H    -1.844000000     3.848000000    -5.061000000
H    -1.836000000     5.361000000    -5.084000000
O    -0.789000000     5.861000000    -2.425000000
H    -0.561000000     4.947000000    -2.253000000
H    -1.693000000     5.827000000    -2.741000000
O     3.478000000     2.489000000    -0.291000000
H     3.507000000     1.891000000    -1.037000000
H     2.619000000     2.906000000    -0.352000000
O     2.880000000    -5.998000000     0.786000000
H     3.743000000    -6.060000000     0.377000000
H     2.387000000    -5.408000000     0.216000000
O    -3.178000000    -3.792000000     1.510000000
H    -2.582000000    -3.863000000     0.764000000
H    -2.842000000    -3.052000000     2.016000000
O     0.920000000    -1.650000000     4.801000000
H     1.377000000    -2.486000000     4.889000000
H     0.055000000    -1.808000000     5.180000000
O    -0.498000000    -2.442000000    -3.740000000
H    -0.386000000    -1.498000000    -3.854000000
H    -1.323000000    -2.641000000    -4.182000000
O    -3.714000000     2.722000000     2.983000000
H    -4.665000000     2.625000000     2.932000000
H    -3.377000000     2.143000000     2.299000000
O    -4.709000000    -5.150000000     4.210000000
H    -4.338000000    -4.781000000     3.409000000
H    -4.838000000    -4.395000000     4.784000000
O     3.607000000     0.357000000     1.547000000
H     2.891000000     0.027000000     1.004000000
H     3.511000000     1.309000000     1.517000000
