158
-3045.55851
C     0.767000000     1.221000000     0.265000000
H     1.278000000     2.131000000     0.570000000
C    -0.080000000     0.520000000     1.122000000
H    -0.189000000     0.933000000     2.122000000
C    -0.836000000    -0.527000000     0.701000000
H    -1.544000000    -1.051000000     1.334000000
C    -0.725000000    -0.988000000    -0.641000000
H    -1.424000000    -1.757000000    -0.961000000
C     0.248000000    -0.348000000    -1.391000000
H     0.321000000    -0.666000000    -2.428000000
C     1.066000000     0.670000000    -0.970000000
C     2.190000000     1.195000000    -1.743000000
O     3.008000000     1.955000000    -1.207000000
O     2.376000000     0.830000000    -2.874000000
O    -2.685000000     3.259000000    -1.695000000
H    -3.537000000     2.856000000    -1.865000000
H    -2.657000000     3.368000000    -0.744000000
O    -3.182000000     2.257000000    -4.866000000
H    -3.006000000     2.812000000    -4.106000000
H    -3.084000000     1.363000000    -4.537000000
O     1.762000000    -2.396000000     1.081000000
H     1.115000000    -1.873000000     0.607000000
H     1.774000000    -2.022000000     1.962000000
O    -1.560000000    -2.330000000     6.337000000
H    -0.884000000    -2.380000000     5.662000000
H    -1.721000000    -3.241000000     6.583000000
O     4.125000000    -2.353000000    -0.718000000
H     3.339000000    -2.079000000    -0.246000000
H     4.475000000    -1.544000000    -1.091000000
O     3.717000000     1.901000000     1.442000000
H     4.673000000     1.855000000     1.455000000
H     3.494000000     1.998000000     0.517000000
O     7.731000000     0.895000000    -1.246000000
H     7.412000000     1.798000000    -1.233000000
H     8.682000000     0.978000000    -1.318000000
O     0.243000000     1.449000000    -4.395000000
H     0.036000000     2.135000000    -3.761000000
H     0.883000000     0.895000000    -3.947000000
O     0.970000000    -5.023000000     0.884000000
H     0.018000000    -5.034000000     0.792000000
H     1.198000000    -4.094000000     0.909000000
O     1.533000000     2.390000000     6.392000000
H     2.076000000     2.035000000     5.688000000
H     0.835000000     1.745000000     6.505000000
O     2.201000000     4.640000000    -1.122000000
H     2.357000000     3.711000000    -1.293000000
H     1.683000000     4.652000000    -0.317000000
O     5.101000000    -0.822000000    -6.462000000
H     5.213000000    -0.903000000    -5.515000000
H     4.974000000    -1.720000000    -6.766000000
O    -2.913000000    -5.102000000     4.453000000
H    -2.808000000    -5.353000000     5.370000000
H    -2.911000000    -5.932000000     3.976000000
O    -0.340000000     0.322000000     7.163000000
H    -1.187000000     0.245000000     7.603000000
H    -0.199000000    -0.536000000     6.762000000
O    -1.668000000    -4.736000000     0.055000000
H    -1.692000000    -4.231000000    -0.758000000
H    -2.351000000    -4.344000000     0.599000000
O    -4.290000000    -2.561000000     5.065000000
H    -4.533000000    -3.153000000     4.353000000
H    -3.361000000    -2.738000000     5.217000000
O     4.722000000     5.492000000    -1.286000000
H     3.889000000     5.026000000    -1.207000000
H     4.474000000     6.389000000    -1.507000000
O    -1.606000000     3.796000000     1.085000000
H    -2.042000000     3.977000000     1.918000000
H    -0.690000000     4.030000000     1.239000000
O     5.183000000     0.187000000    -1.434000000
H     4.539000000     0.895000000    -1.412000000
H     5.986000000     0.584000000    -1.095000000
O    -6.332000000    -0.720000000     4.183000000
H    -5.595000000    -1.018000000     4.716000000
H    -5.958000000    -0.581000000     3.313000000
O    -4.134000000    -1.112000000    -2.427000000
H    -3.467000000    -0.719000000    -2.990000000
H    -3.670000000    -1.802000000    -1.952000000
O     3.957000000     2.898000000    -3.963000000
H     3.442000000     2.138000000    -3.693000000
H     4.346000000     3.225000000    -3.152000000
O    -5.085000000    -4.023000000    -0.747000000
H    -5.160000000    -4.693000000    -1.426000000
H    -4.569000000    -4.438000000    -0.056000000
O     3.322000000     1.550000000    -6.973000000
H     3.834000000     0.796000000    -6.679000000
H     3.119000000     2.029000000    -6.169000000
O     1.122000000    -1.755000000     5.220000000
H     1.925000000    -1.734000000     5.741000000
H     1.095000000    -0.902000000     4.787000000
O     6.923000000     3.754000000    -1.165000000
H     6.171000000     4.259000000    -1.473000000
H     7.021000000     4.007000000    -0.247000000
O     2.084000000     1.907000000     3.609000000
H     2.154000000     2.862000000     3.597000000
H     2.564000000     1.622000000     2.832000000
O    -4.258000000    -5.587000000    -2.708000000
H    -4.032000000    -5.328000000    -3.601000000
H    -3.437000000    -5.517000000    -2.222000000
O    -0.716000000     4.565000000     4.253000000
H    -1.135000000     4.927000000     5.034000000
H     0.219000000     4.570000000     4.457000000
O    -5.998000000     0.349000000    -1.248000000
H    -5.611000000     1.207000000    -1.425000000
H    -5.398000000    -0.273000000    -1.659000000
O    -2.110000000    -0.259000000    -4.072000000
H    -1.535000000    -1.018000000    -4.174000000
H    -1.557000000     0.491000000    -4.289000000
O    -5.322000000    -4.415000000     3.374000000
H    -4.769000000    -5.057000000     3.819000000
H    -6.187000000    -4.529000000     3.769000000
O     1.773000000    -4.536000000     4.484000000
H     1.344000000    -3.702000000     4.290000000
H     2.296000000    -4.360000000     5.267000000
O    -4.215000000    -0.829000000     1.158000000
H    -4.818000000    -0.086000000     1.134000000
H    -3.346000000    -0.435000000     1.092000000
O    -0.168000000     3.472000000    -2.890000000
H    -0.219000000     4.413000000    -3.056000000
H    -0.949000000     3.278000000    -2.371000000
O     3.102000000     6.391000000     1.715000000
H     3.933000000     6.615000000     2.134000000
H     3.347000000     6.101000000     0.836000000
O     0.336000000     0.600000000    -7.621000000
H     1.245000000     0.330000000    -7.752000000
H     0.330000000     1.006000000    -6.754000000
O     0.756000000     5.146000000     1.950000000
H     0.431000000     5.064000000     2.846000000
H     1.576000000     5.633000000     2.036000000
O    -1.244000000    -2.587000000     3.442000000
H    -1.753000000    -3.398000000     3.426000000
H    -0.973000000    -2.457000000     2.534000000
O    -2.918000000     3.084000000     3.471000000
H    -2.949000000     2.142000000     3.637000000
H    -2.332000000     3.427000000     4.146000000
O    -1.418000000    -3.708000000    -2.854000000
H    -0.931000000    -3.084000000    -3.392000000
H    -2.147000000    -3.985000000    -3.408000000
O     1.813000000    -1.195000000    -4.695000000
H     2.110000000    -0.502000000    -4.105000000
H     2.585000000    -1.747000000    -4.824000000
O     5.816000000    -1.612000000    -3.720000000
H     6.554000000    -1.558000000    -3.113000000
H     5.136000000    -1.070000000    -3.320000000
O    -3.588000000    -3.548000000     1.482000000
H    -4.222000000    -3.942000000     2.081000000
H    -3.955000000    -2.689000000     1.275000000
O    -0.600000000    -2.157000000    -4.983000000
H     0.199000000    -1.635000000    -4.917000000
H    -0.672000000    -2.370000000    -5.913000000
O    -2.966000000     0.121000000     3.784000000
H    -2.806000000    -0.782000000     3.512000000
H    -3.166000000     0.058000000     4.718000000
O     2.708000000     5.351000000    -4.140000000
H     2.267000000     5.237000000    -3.298000000
H     3.216000000     4.547000000    -4.255000000
O    -5.175000000     1.650000000     1.886000000
H    -5.938000000     2.017000000     2.334000000
H    -4.460000000     2.249000000     2.102000000
