158
-3050.48390
C     0.658000000     1.309000000    -0.114000000
H     1.050000000     2.323000000    -0.106000000
C    -0.640000000     1.076000000     0.207000000
H    -1.316000000     1.921000000     0.305000000
C    -1.176000000    -0.189000000     0.383000000
H    -2.212000000    -0.372000000     0.593000000
C    -0.400000000    -1.254000000     0.050000000
H    -0.827000000    -2.253000000     0.050000000
C     0.942000000    -1.038000000    -0.315000000
H     1.557000000    -1.876000000    -0.633000000
C     1.495000000     0.258000000    -0.368000000
C     2.926000000     0.494000000    -0.906000000
O     3.431000000     1.586000000    -1.111000000
O     3.612000000    -0.467000000    -1.298000000
O     3.896000000    -2.142000000     2.675000000
H     4.449000000    -1.888000000     3.413000000
H     3.154000000    -1.539000000     2.712000000
O    -2.160000000     3.178000000    -1.602000000
H    -1.277000000     3.101000000    -1.962000000
H    -2.051000000     3.706000000    -0.811000000
O    -1.949000000    -2.856000000     2.621000000
H    -1.696000000    -2.027000000     2.215000000
H    -1.196000000    -3.099000000     3.159000000
O     3.994000000    -2.728000000     0.038000000
H     4.060000000    -2.474000000     0.959000000
H     3.700000000    -1.934000000    -0.408000000
O     7.276000000    -2.356000000     0.205000000
H     6.864000000    -3.195000000     0.412000000
H     7.691000000    -2.497000000    -0.646000000
O     4.406000000     3.573000000     0.539000000
H     5.050000000     3.906000000    -0.086000000
H     4.006000000     2.826000000     0.094000000
O     7.808000000     1.987000000    -1.379000000
H     7.424000000     1.193000000    -1.007000000
H     7.236000000     2.208000000    -2.114000000
O    -2.414000000    -4.414000000    -0.507000000
H    -2.735000000    -4.651000000    -1.377000000
H    -3.014000000    -3.731000000    -0.208000000
O     0.192000000    -5.320000000     0.402000000
H    -0.680000000    -5.066000000     0.101000000
H     0.174000000    -5.165000000     1.347000000
O     2.841000000     6.268000000    -2.408000000
H     2.803000000     6.288000000    -1.451000000
H     3.030000000     5.355000000    -2.621000000
O     7.205000000     2.583000000    -4.322000000
H     7.683000000     1.951000000    -4.859000000
H     6.360000000     2.165000000    -4.156000000
O     0.154000000     2.811000000    -3.046000000
H     1.057000000     2.620000000    -2.793000000
H    -0.282000000     1.959000000    -3.042000000
O    -2.702000000    -1.566000000    -3.860000000
H    -2.352000000    -1.452000000    -4.743000000
H    -2.847000000    -2.509000000    -3.779000000
O     5.459000000     2.023000000     2.429000000
H     5.096000000     2.643000000     1.797000000
H     6.167000000     1.586000000     1.956000000
O     0.716000000     6.475000000     0.572000000
H     0.434000000     7.159000000    -0.036000000
H     1.485000000     6.844000000     1.007000000
O    -5.452000000     1.201000000     4.698000000
H    -5.691000000     0.462000000     5.258000000
H    -4.600000000     0.961000000     4.335000000
O    -1.886000000     5.484000000     0.153000000
H    -0.935000000     5.391000000     0.209000000
H    -2.144000000     5.821000000     1.011000000
O     6.183000000    -0.004000000    -0.152000000
H     5.278000000    -0.237000000    -0.361000000
H     6.589000000    -0.831000000     0.109000000
O    -5.331000000     0.926000000     1.655000000
H    -5.697000000     1.165000000     2.506000000
H    -4.727000000     1.638000000     1.445000000
O     3.268000000     3.697000000    -2.746000000
H     3.836000000     3.417000000    -3.463000000
H     3.235000000     2.944000000    -2.157000000
O     1.328000000     0.022000000     3.094000000
H     1.794000000     0.691000000     3.595000000
H     1.278000000     0.379000000     2.207000000
O     2.566000000     2.579000000     3.317000000
H     2.341000000     2.785000000     4.225000000
H     3.470000000     2.267000000     3.359000000
O    -0.985000000     2.904000000     4.255000000
H    -0.480000000     3.167000000     5.024000000
H    -0.571000000     3.367000000     3.526000000
O    -4.606000000     2.902000000    -3.237000000
H    -3.940000000     3.189000000    -2.611000000
H    -4.989000000     2.121000000    -2.839000000
O    -3.439000000     3.464000000     2.333000000
H    -2.608000000     3.193000000     2.724000000
H    -3.794000000     4.106000000     2.948000000
O    -0.816000000     0.347000000    -2.726000000
H    -0.716000000     0.042000000    -1.824000000
H    -1.170000000    -0.409000000    -3.196000000
O     3.623000000    -5.959000000    -3.299000000
H     2.954000000    -5.585000000    -2.726000000
H     3.159000000    -6.625000000    -3.807000000
O     0.073000000    -2.345000000     4.397000000
H     0.612000000    -1.686000000     3.958000000
H    -0.300000000    -1.887000000     5.150000000
O     5.925000000     5.327000000    -1.023000000
H     5.814000000     6.276000000    -0.980000000
H     6.690000000     5.200000000    -1.584000000
O    -2.647000000     6.369000000    -2.496000000
H    -2.257000000     5.933000000    -1.738000000
H    -2.400000000     5.822000000    -3.241000000
O     2.985000000     5.435000000     2.155000000
H     3.183000000     6.046000000     1.445000000
H     3.379000000     4.608000000     1.876000000
O     0.061000000     4.167000000     2.053000000
H     0.298000000     5.019000000     1.685000000
H     0.888000000     3.688000000     2.099000000
O    -4.470000000    -3.914000000     2.981000000
H    -4.955000000    -3.231000000     2.519000000
H    -3.553000000    -3.743000000     2.767000000
O     4.734000000    -3.067000000    -4.817000000
H     4.437000000    -3.935000000    -4.542000000
H     5.663000000    -3.183000000    -5.015000000
O    -2.681000000     0.811000000     4.501000000
H    -2.146000000     0.069000000     4.784000000
H    -2.053000000     1.520000000     4.362000000
O    -5.594000000    -2.549000000    -2.810000000
H    -5.533000000    -2.045000000    -3.621000000
H    -4.764000000    -2.386000000    -2.363000000
O     1.149000000    -3.835000000    -4.284000000
H     1.252000000    -3.510000000    -5.178000000
H     1.940000000    -3.543000000    -3.830000000
O     3.266000000    -0.673000000    -4.065000000
H     3.240000000    -0.679000000    -3.108000000
H     3.648000000    -1.519000000    -4.299000000
O     5.871000000    -4.790000000    -0.081000000
H     4.991000000    -4.447000000     0.070000000
H     5.938000000    -4.867000000    -1.033000000
O    -7.715000000    -2.792000000     2.743000000
H    -7.037000000    -2.573000000     2.103000000
H    -7.995000000    -3.675000000     2.503000000
O     6.680000000    -0.795000000    -3.849000000
H     5.796000000    -0.860000000    -4.208000000
H     6.654000000    -0.021000000    -3.286000000
O     2.539000000    -4.879000000    -1.068000000
H     1.675000000    -5.028000000    -0.684000000
H     2.770000000    -3.990000000    -0.801000000
O     0.912000000    -4.733000000     3.234000000
H     0.420000000    -5.123000000     3.957000000
H     1.095000000    -3.839000000     3.525000000
O    -5.082000000    -1.802000000     1.256000000
H    -5.138000000    -0.893000000     1.553000000
H    -5.462000000    -1.790000000     0.377000000
O     5.046000000     1.513000000    -3.394000000
H     4.559000000     0.967000000    -4.011000000
H     4.569000000     1.427000000    -2.569000000
O     7.763000000    -3.012000000    -2.494000000
H     7.457000000    -3.910000000    -2.624000000
H     7.236000000    -2.490000000    -3.098000000
O    -4.905000000     4.433000000    -0.072000000
H    -5.123000000     5.365000000    -0.047000000
H    -4.442000000     4.273000000     0.750000000
O    -6.718000000     2.659000000    -1.526000000
H    -5.880000000     2.919000000    -1.143000000
H    -7.216000000     3.474000000    -1.589000000
