158
-3064.22551
C     0.720000000     1.305000000    -0.080000000
H     1.190000000     2.285000000    -0.069000000
C    -0.570000000     1.051000000     0.428000000
H    -1.179000000     1.867000000     0.810000000
C    -1.120000000    -0.165000000     0.425000000
H    -2.102000000    -0.288000000     0.752000000
C    -0.378000000    -1.288000000    -0.021000000
H    -0.931000000    -2.218000000     0.075000000
C     0.907000000    -1.065000000    -0.535000000
H     1.462000000    -1.980000000    -0.727000000
C     1.475000000     0.232000000    -0.592000000
C     2.840000000     0.412000000    -1.160000000
O     3.510000000     1.388000000    -0.811000000
O     3.425000000    -0.456000000    -1.852000000
O     3.503000000    -1.848000000     1.963000000
H     4.013000000    -1.055000000     2.124000000
H     2.616000000    -1.624000000     2.243000000
O    -4.318000000     0.432000000    -0.671000000
H    -4.973000000    -0.157000000    -0.296000000
H    -3.707000000    -0.148000000    -1.125000000
O    -1.677000000     2.184000000    -3.103000000
H    -2.005000000     1.286000000    -3.043000000
H    -2.193000000     2.581000000    -3.804000000
O    -2.846000000    -2.781000000     3.061000000
H    -2.142000000    -2.160000000     3.250000000
H    -3.011000000    -3.217000000     3.896000000
O     3.911000000    -2.734000000    -0.603000000
H     3.777000000    -2.373000000     0.273000000
H     3.837000000    -1.980000000    -1.187000000
O     7.166000000    -2.290000000    -1.070000000
H     6.805000000    -3.173000000    -1.147000000
H     8.083000000    -2.383000000    -1.328000000
O     4.789000000     2.573000000     1.332000000
H     4.360000000     2.026000000     0.674000000
H     4.656000000     3.469000000     1.023000000
O     8.212000000     1.238000000    -2.599000000
H     7.316000000     0.923000000    -2.717000000
H     8.694000000     0.871000000    -3.340000000
O    -0.680000000    -5.251000000    -0.335000000
H    -1.003000000    -4.553000000    -0.906000000
H    -1.222000000    -5.186000000     0.452000000
O     1.963000000    -6.330000000    -0.739000000
H     1.161000000    -5.899000000    -1.035000000
H     1.665000000    -6.978000000    -0.101000000
O     4.856000000     5.911000000    -2.078000000
H     5.015000000     6.049000000    -1.144000000
H     4.806000000     4.960000000    -2.175000000
O     1.120000000     2.721000000    -3.684000000
H     0.308000000     2.357000000    -3.332000000
H     1.252000000     3.532000000    -3.193000000
O     4.999000000     0.196000000     2.833000000
H     4.523000000     1.017000000     2.703000000
H     5.565000000     0.124000000     2.064000000
O    -5.271000000    -1.262000000     5.357000000
H    -6.218000000    -1.262000000     5.216000000
H    -5.132000000    -0.610000000     6.044000000
O     1.969000000     5.090000000    -2.113000000
H     1.972000000     5.955000000    -1.704000000
H     2.794000000     5.051000000    -2.597000000
O     6.106000000     0.004000000     0.224000000
H     5.579000000     0.411000000    -0.463000000
H     6.581000000    -0.697000000    -0.222000000
O    -4.741000000     0.608000000     2.800000000
H    -4.990000000     0.419000000     3.705000000
H    -4.195000000     1.392000000     2.861000000
O     4.449000000     3.313000000    -2.557000000
H     4.116000000     3.020000000    -3.405000000
H     4.208000000     2.614000000    -1.949000000
O     2.222000000    -0.931000000    -6.608000000
H     2.296000000     0.003000000    -6.410000000
H     2.363000000    -1.366000000    -5.768000000
O     1.603000000    -0.179000000     2.757000000
H     1.976000000     0.532000000     3.278000000
H     1.212000000     0.259000000     2.000000000
O     2.837000000     2.099000000     4.101000000
H     2.964000000     3.001000000     3.805000000
H     3.705000000     1.819000000     4.393000000
O     0.426000000     4.224000000     2.677000000
H     0.630000000     4.923000000     3.298000000
H     0.892000000     4.471000000     1.878000000
O    -7.165000000     1.535000000    -1.531000000
H    -7.019000000     1.477000000    -0.587000000
H    -6.438000000     2.067000000    -1.854000000
O    -2.983000000     2.838000000    -0.845000000
H    -3.457000000     2.068000000    -0.531000000
H    -2.410000000     2.502000000    -1.534000000
O    -2.304000000     5.119000000     3.064000000
H    -1.507000000     4.992000000     2.549000000
H    -2.014000000     5.599000000     3.840000000
O    -2.430000000    -0.348000000    -2.905000000
H    -2.402000000    -1.216000000    -2.504000000
H    -1.848000000    -0.414000000    -3.662000000
O    -0.638000000    -1.350000000     4.155000000
H     0.029000000    -0.925000000     3.615000000
H    -1.008000000    -0.641000000     4.681000000
O    -6.269000000    -2.849000000    -1.814000000
H    -6.792000000    -2.498000000    -1.094000000
H    -5.363000000    -2.746000000    -1.525000000
O     4.577000000     1.831000000    -5.165000000
H     3.936000000     1.804000000    -5.876000000
H     5.326000000     2.298000000    -5.535000000
O    -2.040000000     5.219000000    -0.535000000
H    -1.099000000     5.103000000    -0.405000000
H    -2.371000000     4.335000000    -0.693000000
O    -2.177000000    -4.454000000    -2.555000000
H    -1.812000000    -4.379000000    -3.437000000
H    -2.893000000    -5.083000000    -2.645000000
O     2.114000000     4.955000000     0.632000000
H     2.012000000     4.716000000    -0.289000000
H     3.020000000     5.256000000     0.703000000
O    -3.113000000    -4.778000000     1.268000000
H    -3.942000000    -5.046000000     1.666000000
H    -2.835000000    -4.020000000     1.783000000
O     5.019000000    -3.841000000    -4.043000000
H     4.998000000    -4.599000000    -3.459000000
H     5.311000000    -4.194000000    -4.883000000
O    -0.166000000     2.229000000     4.466000000
H    -0.164000000     2.836000000     3.726000000
H     0.756000000     2.009000000     4.598000000
O    -3.533000000    -2.577000000    -0.746000000
H    -3.096000000    -2.607000000     0.105000000
H    -3.140000000    -3.294000000    -1.243000000
O     0.906000000    -3.468000000    -3.266000000
H     1.360000000    -4.159000000    -2.783000000
H     1.608000000    -2.928000000    -3.629000000
O     2.894000000    -1.813000000    -4.134000000
H     2.987000000    -1.136000000    -3.463000000
H     3.588000000    -2.442000000    -3.936000000
O     6.683000000    -1.719000000    -4.456000000
H     6.213000000    -2.535000000    -4.284000000
H     6.338000000    -1.103000000    -3.810000000
O     4.504000000    -5.333000000    -1.167000000
H     3.637000000    -5.738000000    -1.191000000
H     4.328000000    -4.393000000    -1.130000000
O     0.483000000    -3.794000000     4.760000000
H    -0.238000000    -4.394000000     4.571000000
H     0.194000000    -2.953000000     4.405000000
O    -6.297000000    -1.880000000     2.458000000
H    -5.449000000    -1.495000000     2.680000000
H    -6.583000000    -1.399000000     1.682000000
O    -5.272000000     4.532000000     0.399000000
H    -4.403000000     4.131000000     0.348000000
H    -5.378000000     4.755000000     1.324000000
O     3.595000000    -5.360000000     1.698000000
H     3.140000000    -5.254000000     0.863000000
H     3.626000000    -4.477000000     2.067000000
O    -1.231000000     0.399000000     6.116000000
H    -1.100000000     0.971000000     5.359000000
H    -0.355000000     0.281000000     6.482000000
O     5.617000000     0.648000000    -2.868000000
H     5.072000000     0.987000000    -3.578000000
H     4.994000000     0.274000000    -2.245000000
O    -3.159000000     2.450000000     3.871000000
H    -2.924000000     3.069000000     3.180000000
H    -2.363000000     2.362000000     4.395000000
O    -6.788000000     1.059000000     1.212000000
H    -5.958000000     1.027000000     1.687000000
H    -7.327000000     1.673000000     1.711000000
