158
-3051.52404
C     1.336000000     0.478000000     0.572000000
H     2.226000000     0.844000000     1.077000000
C     0.107000000     0.364000000     1.327000000
H     0.053000000     0.651000000     2.374000000
C    -1.016000000    -0.133000000     0.683000000
H    -1.909000000    -0.198000000     1.288000000
C    -0.968000000    -0.382000000    -0.668000000
H    -1.837000000    -0.717000000    -1.229000000
C     0.185000000    -0.247000000    -1.449000000
H     0.255000000    -0.545000000    -2.492000000
C     1.309000000     0.304000000    -0.793000000
C     2.468000000     0.577000000    -1.673000000
O     3.447000000     1.185000000    -1.258000000
O     2.512000000     0.233000000    -2.816000000
O    -1.757000000     2.902000000     4.764000000
H    -1.817000000     3.848000000     4.897000000
H    -1.119000000     2.608000000     5.413000000
O     5.925000000     1.408000000     0.166000000
H     5.116000000     1.530000000    -0.331000000
H     6.613000000     1.740000000    -0.412000000
O     4.875000000    -2.205000000    -1.559000000
H     5.520000000    -1.528000000    -1.763000000
H     4.401000000    -1.863000000    -0.801000000
O     0.762000000    -3.738000000    -5.698000000
H     0.975000000    -2.841000000    -5.442000000
H     1.233000000    -3.871000000    -6.521000000
O    -3.238000000     0.339000000    -5.559000000
H    -3.493000000    -0.526000000    -5.238000000
H    -3.111000000     0.217000000    -6.500000000
O     3.787000000    -1.546000000     0.930000000
H     2.840000000    -1.460000000     1.035000000
H     4.092000000    -0.655000000     0.760000000
O    -3.756000000     1.028000000     5.243000000
H    -3.107000000     1.730000000     5.275000000
H    -4.596000000     1.481000000     5.163000000
O     4.966000000     0.970000000    -3.759000000
H     4.739000000     1.456000000    -4.552000000
H     4.126000000     0.815000000    -3.325000000
O     3.019000000     2.451000000     4.264000000
H     3.556000000     2.288000000     3.488000000
H     2.990000000     3.405000000     4.339000000
O     7.435000000     0.776000000    -2.925000000
H     6.502000000     0.723000000    -3.134000000
H     7.864000000     0.885000000    -3.773000000
O    -2.569000000     3.839000000     0.662000000
H    -2.109000000     4.630000000     0.940000000
H    -1.941000000     3.381000000     0.103000000
O    -0.268000000    -2.944000000     1.521000000
H    -1.159000000    -3.191000000     1.767000000
H    -0.348000000    -2.046000000     1.201000000
O     0.343000000     2.222000000     6.362000000
H     0.204000000     2.450000000     7.281000000
H     0.244000000     1.270000000     6.333000000
O    -2.855000000    -1.258000000     6.390000000
H    -2.771000000    -1.123000000     7.334000000
H    -3.231000000    -0.442000000     6.063000000
O    -2.338000000    -4.898000000     0.384000000
H    -2.840000000    -4.109000000     0.588000000
H    -2.316000000    -5.387000000     1.206000000
O     3.822000000     3.774000000    -0.359000000
H     3.497000000     4.315000000    -1.079000000
H     3.476000000     2.900000000    -0.542000000
O     1.757000000     4.650000000    -3.122000000
H     1.407000000     4.922000000    -3.971000000
H     1.639000000     3.700000000    -3.107000000
O    -0.671000000     2.974000000    -1.401000000
H    -0.822000000     2.109000000    -1.783000000
H     0.188000000     2.904000000    -0.983000000
O     1.117000000     2.116000000    -3.835000000
H     1.781000000     1.532000000    -3.468000000
H     0.497000000     1.530000000    -4.269000000
O    -6.870000000    -3.045000000     2.196000000
H    -7.211000000    -3.695000000     1.581000000
H    -6.588000000    -2.317000000     1.642000000
O     2.175000000    -1.301000000    -4.897000000
H     2.958000000    -1.849000000    -4.848000000
H     2.219000000    -0.749000000    -4.116000000
O     4.192000000     3.208000000    -5.312000000
H     3.610000000     3.713000000    -4.743000000
H     4.324000000     3.768000000    -6.077000000
O    -4.163000000    -0.530000000     2.518000000
H    -3.814000000     0.223000000     2.995000000
H    -4.500000000    -0.162000000     1.701000000
O    -1.277000000    -3.431000000    -3.735000000
H    -0.815000000    -3.800000000    -4.488000000
H    -1.553000000    -4.193000000    -3.226000000
O    -4.154000000     1.503000000    -0.983000000
H    -3.488000000     1.330000000    -1.648000000
H    -3.828000000     2.268000000    -0.510000000
O    -6.177000000     2.453000000     3.245000000
H    -6.444000000     3.275000000     2.834000000
H    -5.220000000     2.482000000     3.238000000
O    -3.584000000    -2.351000000    -4.765000000
H    -4.114000000    -2.487000000    -3.979000000
H    -2.722000000    -2.698000000    -4.535000000
O    -7.626000000     0.493000000     1.005000000
H    -8.559000000     0.681000000     1.102000000
H    -7.239000000     0.760000000     1.839000000
O    -3.610000000     2.658000000     2.586000000
H    -2.937000000     2.827000000     3.246000000
H    -3.382000000     3.236000000     1.858000000
O    -3.132000000    -3.903000000     6.067000000
H    -3.697000000    -4.116000000     6.810000000
H    -3.115000000    -2.946000000     6.046000000
O     1.187000000     4.502000000     4.930000000
H     1.087000000     3.698000000     5.441000000
H     0.334000000     4.932000000     4.993000000
O     2.481000000    -0.286000000     4.213000000
H     2.863000000     0.588000000     4.135000000
H     1.991000000    -0.261000000     5.035000000
O     0.256000000    -0.530000000     6.142000000
H    -0.220000000    -1.037000000     5.484000000
H    -0.244000000    -0.656000000     6.948000000
O    -3.007000000    -2.862000000     2.092000000
H    -3.420000000    -3.041000000     2.936000000
H    -3.175000000    -1.933000000     1.934000000
O     4.354000000     1.111000000     2.300000000
H     4.998000000     1.476000000     1.693000000
H     4.815000000     0.392000000     2.734000000
O     0.139000000     3.765000000     2.080000000
H    -0.334000000     3.248000000     2.733000000
H     0.918000000     3.245000000     1.882000000
O    -0.661000000    -2.704000000     4.502000000
H    -1.242000000    -3.103000000     5.149000000
H    -0.929000000    -3.090000000     3.668000000
O    -5.177000000    -2.653000000    -2.261000000
H    -4.798000000    -3.355000000    -1.732000000
H    -5.258000000    -1.915000000    -1.658000000
O    -4.122000000    -4.682000000     3.721000000
H    -4.002000000    -4.500000000     4.653000000
H    -3.434000000    -5.314000000     3.510000000
O    -0.895000000     3.833000000    -5.071000000
H    -0.655000000     4.750000000    -5.203000000
H    -0.077000000     3.405000000    -4.818000000
O     0.209000000    -4.940000000    -0.935000000
H    -0.499000000    -5.228000000    -1.511000000
H    -0.153000000    -4.187000000    -0.468000000
O    -5.640000000    -0.647000000    -0.321000000
H    -5.062000000     0.095000000    -0.501000000
H    -6.435000000    -0.250000000     0.035000000
O     3.790000000     0.071000000    -7.216000000
H     4.596000000    -0.335000000    -7.536000000
H     3.753000000    -0.167000000    -6.290000000
O     4.445000000    -2.878000000    -4.271000000
H     3.779000000    -3.514000000    -4.010000000
H     4.733000000    -2.481000000    -3.449000000
O     3.839000000    -2.889000000     4.229000000
H     3.432000000    -2.162000000     3.757000000
H     3.301000000    -2.996000000     5.013000000
O     6.324000000     4.416000000     0.332000000
H     6.477000000     3.983000000    -0.508000000
H     5.372000000     4.419000000     0.430000000
O    -2.024000000     1.781000000    -3.398000000
H    -2.251000000     1.237000000    -4.152000000
H    -2.019000000     2.675000000    -3.740000000
O    -5.990000000    -1.457000000     4.387000000
H    -6.019000000    -2.185000000     3.767000000
H    -5.658000000    -0.719000000     3.875000000
