158
-2994.01103
C     0.840000000     1.009000000     0.728000000
H     1.341000000     1.838000000     1.221000000
C    -0.550000000     0.833000000     0.966000000
H    -1.040000000     1.486000000     1.684000000
C    -1.157000000    -0.239000000     0.298000000
H    -2.243000000    -0.367000000     0.429000000
C    -0.474000000    -1.006000000    -0.586000000
H    -0.988000000    -1.853000000    -1.033000000
C     0.904000000    -0.780000000    -0.818000000
H     1.404000000    -1.459000000    -1.504000000
C     1.476000000     0.340000000    -0.307000000
C     2.891000000     0.722000000    -0.715000000
O     3.516000000     1.476000000     0.034000000
O     3.384000000     0.347000000    -1.776000000
O    -2.132000000     1.191000000     4.821000000
H    -2.592000000     2.020000000     4.947000000
H    -2.244000000     0.726000000     5.650000000
O    -4.462000000     1.942000000     0.805000000
H    -4.705000000     1.863000000     1.727000000
H    -3.693000000     2.511000000     0.807000000
O    -4.301000000    -5.536000000     0.894000000
H    -3.635000000    -5.717000000     0.230000000
H    -4.039000000    -4.697000000     1.273000000
O    -3.506000000    -0.525000000     3.059000000
H    -4.252000000     0.074000000     3.089000000
H    -2.785000000    -0.029000000     3.446000000
O     6.281000000     1.957000000     0.498000000
H     6.128000000     2.241000000     1.399000000
H     5.422000000     1.676000000     0.185000000
O     1.788000000     3.061000000     3.479000000
H     1.111000000     3.220000000     2.821000000
H     1.346000000     2.553000000     4.160000000
O     7.584000000     1.629000000    -2.424000000
H     7.539000000     1.003000000    -1.701000000
H     8.098000000     1.182000000    -3.096000000
O    -1.044000000    -1.928000000     2.972000000
H    -1.864000000    -1.595000000     3.336000000
H    -1.214000000    -2.010000000     2.034000000
O     0.857000000     5.769000000     0.729000000
H     1.228000000     6.312000000     1.424000000
H     1.331000000     4.940000000     0.794000000
O     4.409000000     6.383000000     1.315000000
H     5.173000000     5.914000000     0.978000000
H     3.754000000     5.701000000     1.460000000
O    -0.053000000    -4.177000000     4.385000000
H     0.818000000    -3.914000000     4.681000000
H    -0.200000000    -3.664000000     3.590000000
O     2.527000000     5.340000000     4.709000000
H     2.312000000     4.647000000     4.084000000
H     2.215000000     5.008000000     5.551000000
O     6.524000000     1.580000000    -4.901000000
H     6.537000000     1.685000000    -3.949000000
H     7.371000000     1.186000000    -5.109000000
O     5.417000000     3.527000000     3.039000000
H     4.540000000     3.184000000     3.208000000
H     5.389000000     4.428000000     3.361000000
O    -7.836000000    -0.001000000     0.765000000
H    -7.939000000    -0.476000000     1.590000000
H    -7.577000000     0.882000000     1.029000000
O    -0.947000000     0.914000000    -2.944000000
H    -0.165000000     0.642000000    -3.424000000
H    -0.759000000     0.689000000    -2.033000000
O    -4.473000000    -5.226000000    -3.054000000
H    -4.202000000    -4.364000000    -2.739000000
H    -4.219000000    -5.235000000    -3.977000000
O     3.920000000     3.071000000    -3.271000000
H     3.951000000     2.401000000    -2.588000000
H     4.101000000     3.891000000    -2.811000000
O    -3.832000000    -2.387000000     0.911000000
H    -4.283000000    -1.671000000     0.463000000
H    -3.557000000    -2.011000000     1.747000000
O     5.797000000    -0.884000000    -1.865000000
H     4.977000000    -0.469000000    -2.133000000
H     5.718000000    -0.979000000    -0.916000000
O     6.564000000    -0.648000000     1.554000000
H     7.148000000    -0.167000000     2.140000000
H     5.719000000    -0.207000000     1.643000000
O    -5.204000000    -0.358000000    -0.081000000
H    -4.809000000     0.486000000     0.135000000
H    -6.030000000    -0.367000000     0.404000000
O     4.224000000    -3.973000000    -3.066000000
H     4.142000000    -3.050000000    -3.306000000
H     3.582000000    -4.421000000    -3.616000000
O    -1.680000000    -2.861000000    -3.865000000
H    -1.758000000    -3.668000000    -4.375000000
H    -2.147000000    -3.046000000    -3.050000000
O    -0.082000000    -1.729000000    -6.099000000
H    -0.655000000    -1.994000000    -5.380000000
H    -0.513000000    -0.964000000    -6.480000000
O    -5.197000000     2.473000000    -1.927000000
H    -4.800000000     2.126000000    -1.128000000
H    -4.617000000     3.186000000    -2.192000000
O     0.649000000    -4.664000000    -2.126000000
H     0.183000000    -5.498000000    -2.076000000
H     0.459000000    -4.335000000    -3.005000000
O     6.514000000     5.127000000    -0.074000000
H     7.114000000     5.740000000    -0.497000000
H     6.208000000     4.563000000    -0.784000000
O    -2.687000000     4.072000000     1.534000000
H    -2.152000000     3.928000000     2.315000000
H    -2.823000000     5.019000000     1.508000000
O     0.238000000     2.079000000     5.380000000
H    -0.486000000     1.795000000     4.822000000
H    -0.170000000     2.652000000     6.029000000
O    -0.947000000    -4.465000000     0.621000000
H    -0.703000000    -5.305000000     1.009000000
H    -0.612000000    -4.509000000    -0.274000000
O     3.911000000     0.313000000     2.472000000
H     3.845000000     0.872000000     1.698000000
H     3.051000000     0.374000000     2.886000000
O    -1.112000000     4.249000000     3.621000000
H    -0.863000000     5.152000000     3.425000000
H    -1.643000000     4.313000000     4.414000000
O    -3.753000000    -1.119000000    -4.663000000
H    -4.407000000    -1.344000000    -4.001000000
H    -2.914000000    -1.321000000    -4.249000000
O    -7.065000000     3.085000000     0.821000000
H    -6.239000000     3.011000000     0.343000000
H    -6.894000000     3.742000000     1.496000000
O    -6.463000000    -3.800000000     2.766000000
H    -5.632000000    -3.520000000     2.382000000
H    -6.775000000    -4.491000000     2.182000000
O    -3.313000000    -3.322000000    -1.723000000
H    -3.194000000    -3.408000000    -0.778000000
H    -3.849000000    -2.535000000    -1.826000000
O     4.348000000    -1.552000000    -4.975000000
H     3.549000000    -1.079000000    -5.205000000
H     4.750000000    -1.023000000    -4.286000000
O    -2.600000000    -5.570000000     3.421000000
H    -1.751000000    -5.128000000     3.455000000
H    -2.643000000    -5.938000000     2.539000000
O     1.136000000    -0.341000000     4.076000000
H     0.513000000    -0.972000000     3.714000000
H     0.615000000     0.193000000     4.676000000
O    -5.472000000    -1.197000000    -2.772000000
H    -5.198000000    -0.743000000    -1.975000000
H    -6.427000000    -1.129000000    -2.769000000
O     3.503000000    -2.810000000    -0.059000000
H     2.795000000    -2.453000000     0.477000000
H     3.073000000    -3.446000000    -0.631000000
O     1.304000000    -2.940000000     1.547000000
H     0.987000000    -2.063000000     1.764000000
H     0.524000000    -3.494000000     1.589000000
O     3.963000000     1.377000000    -5.824000000
H     4.826000000     1.528000000    -5.439000000
H     3.504000000     2.210000000    -5.716000000
O     7.084000000    -2.268000000    -4.151000000
H     6.626000000    -1.794000000    -4.845000000
H     6.674000000    -1.964000000    -3.342000000
O     2.995000000     4.109000000     0.517000000
H     3.137000000     4.468000000    -0.359000000
H     3.249000000     3.189000000     0.443000000
O     1.598000000     0.530000000    -3.963000000
H     2.047000000     0.585000000    -3.119000000
H     2.195000000     0.954000000    -4.580000000
O    -5.720000000     0.959000000     3.169000000
H    -5.853000000     1.871000000     3.428000000
H    -6.375000000     0.471000000     3.669000000
