158
-3018.69939
C     0.670000000     1.039000000     0.785000000
H     1.096000000     1.743000000     1.495000000
C    -0.697000000     0.760000000     0.851000000
H    -1.347000000     1.390000000     1.453000000
C    -1.206000000    -0.234000000    -0.001000000
H    -2.283000000    -0.447000000     0.073000000
C    -0.368000000    -0.947000000    -0.826000000
H    -0.755000000    -1.703000000    -1.504000000
C     1.007000000    -0.682000000    -0.869000000
H     1.552000000    -1.113000000    -1.705000000
C     1.550000000     0.261000000     0.003000000
C     3.042000000     0.545000000    -0.114000000
O     3.460000000     1.376000000     0.672000000
O     3.769000000    -0.180000000    -0.754000000
O    -5.140000000    -1.364000000     4.793000000
H    -4.917000000    -1.318000000     3.863000000
H    -5.402000000    -2.274000000     4.931000000
O    -5.103000000     2.918000000     0.885000000
H    -5.209000000     2.499000000     1.739000000
H    -4.327000000     3.469000000     0.984000000
O     8.735000000     2.088000000     1.500000000
H     9.305000000     2.540000000     0.878000000
H     7.868000000     2.117000000     1.095000000
O    -4.323000000    -0.372000000     2.291000000
H    -5.129000000    -0.880000000     2.198000000
H    -4.586000000     0.409000000     2.778000000
O    -4.806000000    -1.101000000    -4.820000000
H    -5.584000000    -1.538000000    -5.164000000
H    -4.944000000    -0.175000000    -5.018000000
O     6.181000000     1.645000000     0.554000000
H     6.396000000     0.906000000    -0.015000000
H     5.224000000     1.653000000     0.585000000
O     1.603000000     3.126000000     4.565000000
H     1.948000000     3.064000000     5.455000000
H     0.762000000     2.672000000     4.602000000
O     3.274000000    -5.728000000    -2.658000000
H     3.368000000    -5.521000000    -3.588000000
H     2.406000000    -5.397000000    -2.426000000
O    -1.813000000    -1.395000000     3.651000000
H    -2.572000000    -1.083000000     3.158000000
H    -1.069000000    -1.241000000     3.068000000
O     0.732000000     6.523000000     0.961000000
H     1.572000000     6.866000000     1.265000000
H     0.965000000     5.844000000     0.328000000
O    -1.821000000    -3.166000000     5.610000000
H    -1.363000000    -2.694000000     6.305000000
H    -1.971000000    -2.509000000     4.932000000
O     1.021000000    -0.975000000     4.104000000
H     1.791000000    -0.426000000     3.962000000
H     0.895000000    -1.431000000     3.271000000
O    -1.105000000     5.647000000     2.719000000
H    -0.662000000     5.165000000     3.417000000
H    -0.395000000     6.013000000     2.192000000
O     4.234000000     3.773000000     4.335000000
H     3.429000000     4.020000000     4.789000000
H     3.974000000     3.686000000     3.418000000
O    -2.721000000     2.273000000    -1.279000000
H    -2.029000000     1.685000000    -0.975000000
H    -2.746000000     2.971000000    -0.625000000
O    -6.055000000    -4.289000000    -3.466000000
H    -6.587000000    -3.731000000    -4.033000000
H    -5.152000000    -4.049000000    -3.672000000
O     5.049000000     1.419000000    -2.592000000
H     4.439000000     0.801000000    -2.190000000
H     5.200000000     2.081000000    -1.917000000
O    -4.584000000    -0.962000000    -0.789000000
H    -5.240000000    -0.293000000    -0.590000000
H    -3.878000000    -0.798000000    -0.164000000
O     6.176000000    -0.832000000    -0.155000000
H     5.269000000    -0.628000000    -0.384000000
H     6.122000000    -1.209000000     0.723000000
O     5.824000000    -0.661000000     2.901000000
H     5.073000000    -0.150000000     3.202000000
H     5.546000000    -1.572000000     2.993000000
O    -6.867000000     0.647000000     0.230000000
H    -6.401000000     1.483000000     0.228000000
H    -7.425000000     0.686000000     1.007000000
O     4.250000000    -2.827000000     0.162000000
H     3.829000000    -2.024000000    -0.144000000
H     4.359000000    -3.357000000    -0.628000000
O     6.113000000     1.807000000     4.778000000
H     5.863000000     2.731000000     4.760000000
H     5.722000000     1.438000000     3.986000000
O    -4.119000000     4.164000000    -2.882000000
H    -3.570000000     3.416000000    -2.649000000
H    -4.153000000     4.694000000    -2.086000000
O    -1.746000000    -4.115000000    -2.016000000
H    -2.096000000    -4.886000000    -2.462000000
H    -2.296000000    -3.393000000    -2.320000000
O    -1.250000000    -1.528000000    -5.026000000
H    -0.499000000    -0.952000000    -4.887000000
H    -1.979000000    -1.077000000    -4.599000000
O     0.822000000    -4.886000000    -2.667000000
H     0.805000000    -4.405000000    -3.495000000
H    -0.045000000    -4.739000000    -2.288000000
O     6.038000000     4.586000000     1.073000000
H     5.810000000     4.114000000     0.272000000
H     5.369000000     4.324000000     1.705000000
O    -2.865000000     4.354000000     0.569000000
H    -2.906000000     5.103000000    -0.026000000
H    -2.490000000     4.709000000     1.375000000
O    -6.382000000    -3.287000000    -0.926000000
H    -6.198000000    -3.383000000    -1.860000000
H    -5.771000000    -2.611000000    -0.631000000
O     5.099000000     4.554000000    -1.764000000
H     5.577000000     4.730000000    -2.575000000
H     4.226000000     4.916000000    -1.918000000
O    -0.381000000    -4.410000000     0.321000000
H    -0.114000000    -5.327000000     0.253000000
H    -0.866000000    -4.241000000    -0.487000000
O     3.522000000     0.925000000     3.319000000
H     3.409000000     1.208000000     2.412000000
H     3.319000000     1.702000000     3.840000000
O    -2.273000000     0.960000000    -3.792000000
H    -3.197000000     1.016000000    -4.032000000
H    -2.263000000     1.084000000    -2.843000000
O     2.197000000    -1.444000000    -5.177000000
H     1.382000000    -1.939000000    -5.089000000
H     2.436000000    -1.537000000    -6.099000000
O    -6.817000000    -2.549000000     2.232000000
H    -6.568000000    -3.460000000     2.387000000
H    -7.389000000    -2.584000000     1.465000000
O    -3.732000000    -2.621000000    -2.661000000
H    -4.003000000    -2.115000000    -1.895000000
H    -4.049000000    -2.114000000    -3.408000000
O     4.288000000    -1.980000000    -3.019000000
H     3.740000000    -1.759000000    -3.772000000
H     4.062000000    -1.324000000    -2.358000000
O    -0.663000000     1.566000000     4.793000000
H    -1.088000000     1.095000000     5.509000000
H    -0.321000000     0.877000000     4.223000000
O    -7.152000000     1.320000000    -2.855000000
H    -6.995000000     0.943000000    -1.989000000
H    -7.685000000     0.667000000    -3.308000000
O     2.701000000    -3.660000000     2.517000000
H     1.847000000    -3.263000000     2.342000000
H     3.137000000    -3.675000000     1.665000000
O     0.560000000    -2.341000000     1.722000000
H     0.391000000    -1.617000000     1.119000000
H     0.366000000    -3.128000000     1.213000000
O     6.324000000     0.186000000    -4.532000000
H     6.776000000    -0.390000000    -3.915000000
H     5.891000000     0.837000000    -3.980000000
O     6.959000000    -1.783000000    -2.504000000
H     6.053000000    -1.987000000    -2.738000000
H     6.892000000    -1.318000000    -1.670000000
O     3.570000000     4.056000000     1.703000000
H     3.217000000     4.877000000     1.362000000
H     3.331000000     3.401000000     1.047000000
O     1.787000000     4.633000000    -0.973000000
H     1.708000000     3.783000000    -1.405000000
H     1.797000000     5.266000000    -1.691000000
O    -3.297000000    -0.171000000     6.488000000
H    -3.751000000    -0.633000000     5.783000000
H    -3.697000000     0.699000000     6.500000000
O    -5.534000000     1.981000000     3.385000000
H    -4.925000000     1.930000000     4.121000000
H    -6.302000000     2.429000000     3.740000000
