158
-2993.50089
C     0.550000000     1.253000000     0.656000000
H     0.821000000     2.190000000     1.136000000
C    -0.509000000     0.471000000     1.138000000
H    -1.112000000     0.808000000     1.977000000
C    -0.932000000    -0.658000000     0.520000000
H    -1.912000000    -1.047000000     0.880000000
C    -0.374000000    -1.058000000    -0.686000000
H    -0.782000000    -1.976000000    -1.102000000
C     0.701000000    -0.262000000    -1.210000000
H     1.229000000    -0.547000000    -2.116000000
C     1.242000000     0.877000000    -0.542000000
C     2.481000000     1.588000000    -1.162000000
O     2.935000000     2.644000000    -0.623000000
O     2.955000000     1.296000000    -2.238000000
O    -5.281000000    -0.802000000     4.472000000
H    -5.042000000    -1.475000000     5.110000000
H    -4.921000000    -1.120000000     3.643000000
O    -3.179000000    -1.299000000    -3.205000000
H    -3.355000000    -1.898000000    -2.480000000
H    -3.394000000    -0.433000000    -2.859000000
O    -4.517000000    -2.132000000     2.294000000
H    -5.249000000    -2.128000000     1.677000000
H    -4.366000000    -3.058000000     2.480000000
O    -2.315000000    -0.047000000    -5.411000000
H    -3.094000000    -0.204000000    -5.943000000
H    -2.506000000    -0.474000000    -4.576000000
O     6.021000000    -3.121000000    -0.121000000
H     5.218000000    -2.601000000    -0.146000000
H     6.301000000    -3.086000000     0.794000000
O     7.256000000    -0.798000000    -0.470000000
H     6.888000000    -1.668000000    -0.627000000
H     6.537000000    -0.196000000    -0.663000000
O     2.400000000     5.050000000     2.034000000
H     2.058000000     4.933000000     2.920000000
H     2.915000000     4.260000000     1.869000000
O     5.992000000     5.702000000    -3.740000000
H     5.454000000     4.936000000    -3.544000000
H     5.583000000     6.091000000    -4.513000000
O    -0.139000000    -3.321000000     1.540000000
H    -0.184000000    -2.547000000     0.978000000
H    -0.615000000    -3.996000000     1.056000000
O     2.386000000    -5.406000000    -1.584000000
H     2.077000000    -5.835000000    -2.383000000
H     1.664000000    -5.507000000    -0.964000000
O     2.107000000     5.282000000    -0.696000000
H     2.271000000     5.635000000     0.179000000
H     2.556000000     4.437000000    -0.701000000
O     5.142000000     6.525000000     0.922000000
H     5.210000000     5.944000000     0.165000000
H     4.695000000     6.002000000     1.587000000
O    -0.473000000     6.139000000    -0.762000000
H     0.461000000     5.993000000    -0.907000000
H    -0.697000000     6.863000000    -1.347000000
O     1.953000000    -4.886000000     3.242000000
H     2.165000000    -4.383000000     4.029000000
H     1.163000000    -4.470000000     2.898000000
O     0.456000000    -6.140000000    -4.105000000
H    -0.168000000    -6.675000000    -4.594000000
H     0.082000000    -5.259000000    -4.122000000
O     4.107000000     0.094000000     2.196000000
H     3.281000000    -0.389000000     2.211000000
H     4.566000000    -0.241000000     1.426000000
O     5.081000000     2.483000000     4.738000000
H     5.037000000     3.429000000     4.602000000
H     4.171000000     2.191000000     4.690000000
O    -1.014000000     4.535000000     2.655000000
H    -1.919000000     4.304000000     2.864000000
H    -0.963000000     4.465000000     1.702000000
O     3.759000000     2.768000000     1.892000000
H     3.296000000     2.494000000     1.101000000
H     4.206000000     1.978000000     2.194000000
O     4.117000000     3.682000000    -3.465000000
H     4.287000000     3.101000000    -4.207000000
H     3.523000000     3.185000000    -2.903000000
O    -4.003000000    -4.371000000    -3.324000000
H    -4.040000000    -3.868000000    -2.511000000
H    -4.039000000    -5.285000000    -3.041000000
O    -5.645000000    -2.206000000    -4.390000000
H    -5.927000000    -1.532000000    -3.771000000
H    -4.847000000    -2.567000000    -4.003000000
O    -2.969000000    -6.834000000     0.018000000
H    -3.267000000    -6.769000000    -0.889000000
H    -2.692000000    -7.745000000     0.115000000
O     2.748000000    -2.773000000    -3.022000000
H     2.032000000    -2.535000000    -3.611000000
H     2.476000000    -3.608000000    -2.640000000
O    -2.836000000     1.107000000    -1.999000000
H    -2.825000000     1.981000000    -2.389000000
H    -2.212000000     1.161000000    -1.275000000
O    -2.895000000     5.225000000    -0.966000000
H    -3.383000000     5.714000000    -0.303000000
H    -2.005000000     5.576000000    -0.915000000
O    -6.544000000    -2.259000000     0.912000000
H    -7.076000000    -2.069000000     0.139000000
H    -7.181000000    -2.471000000     1.594000000
O    -1.656000000    -4.284000000    -5.190000000
H    -1.621000000    -4.873000000    -5.944000000
H    -2.518000000    -4.439000000    -4.804000000
O     2.269000000     1.498000000    -6.654000000
H     2.058000000     1.674000000    -5.737000000
H     1.734000000     0.737000000    -6.881000000
O     0.779000000    -3.073000000    -4.865000000
H     1.315000000    -3.635000000    -5.425000000
H    -0.120000000    -3.352000000    -5.037000000
O     7.961000000     3.303000000    -1.182000000
H     8.506000000     3.768000000    -1.817000000
H     7.744000000     2.476000000    -1.613000000
O    -3.488000000     3.487000000     3.243000000
H    -3.616000000     2.557000000     3.430000000
H    -4.346000000     3.795000000     2.954000000
O    -4.221000000    -4.841000000     1.491000000
H    -3.666000000    -5.526000000     1.119000000
H    -5.059000000    -5.273000000     1.654000000
O     0.934000000     4.081000000     4.315000000
H     0.085000000     4.314000000     3.937000000
H     1.296000000     4.913000000     4.620000000
O     5.409000000     4.474000000    -1.108000000
H     6.019000000     3.908000000    -1.580000000
H     4.644000000     3.921000000    -0.949000000
O    -0.413000000    -5.785000000     0.159000000
H     0.076000000    -6.595000000     0.309000000
H    -1.332000000    -6.044000000     0.230000000
O     2.356000000     1.717000000     4.394000000
H     1.857000000     2.527000000     4.497000000
H     2.785000000     1.806000000     3.543000000
O     5.515000000     1.798000000    -5.302000000
H     4.952000000     1.064000000    -5.055000000
H     5.385000000     1.892000000    -6.246000000
O    -4.232000000    -3.264000000    -0.835000000
H    -4.230000000    -3.953000000    -0.170000000
H    -4.697000000    -2.536000000    -0.423000000
O     0.089000000    -0.930000000    -6.753000000
H     0.533000000    -1.198000000    -5.948000000
H    -0.751000000    -0.579000000    -6.457000000
O     4.042000000    -0.167000000    -4.562000000
H     4.256000000    -0.992000000    -4.127000000
H     3.671000000     0.380000000    -3.869000000
O    -0.964000000    -6.983000000     2.832000000
H    -0.603000000    -6.196000000     2.424000000
H    -0.777000000    -7.684000000     2.207000000
O    -1.762000000     2.117000000     6.843000000
H    -2.527000000     1.998000000     6.280000000
H    -1.069000000     1.614000000     6.415000000
O     3.622000000    -1.747000000    -0.260000000
H     2.837000000    -1.656000000     0.280000000
H     3.316000000    -1.595000000    -1.154000000
O     1.864000000    -1.494000000     2.045000000
H     1.258000000    -0.964000000     2.562000000
H     1.557000000    -2.393000000     2.164000000
O     5.534000000     0.920000000    -1.760000000
H     4.650000000     1.282000000    -1.699000000
H     5.864000000     1.234000000    -2.602000000
O     2.433000000     6.437000000    -3.348000000
H     2.257000000     6.146000000    -2.454000000
H     2.726000000     5.648000000    -3.804000000
O    -4.170000000     1.383000000     5.723000000
H    -4.708000000     0.762000000     5.232000000
H    -4.787000000     2.049000000     6.026000000
