158
-3005.30645
C     1.237000000     0.192000000     0.867000000
H     2.082000000     0.310000000     1.540000000
C    -0.041000000    -0.106000000     1.338000000
H    -0.186000000    -0.256000000     2.405000000
C    -1.069000000    -0.322000000     0.429000000
H    -2.093000000    -0.538000000     0.831000000
C    -0.834000000    -0.290000000    -0.960000000
H    -1.673000000    -0.193000000    -1.643000000
C     0.417000000     0.015000000    -1.397000000
H     0.568000000     0.105000000    -2.470000000
C     1.428000000     0.318000000    -0.504000000
C     2.768000000     0.781000000    -1.038000000
O     3.769000000     0.383000000    -0.439000000
O     2.809000000     1.266000000    -2.145000000
O    -4.526000000     1.228000000     4.128000000
H    -4.532000000     2.096000000     4.532000000
H    -4.261000000     1.387000000     3.222000000
O     6.110000000    -0.966000000    -1.105000000
H     5.407000000    -0.469000000    -0.687000000
H     6.310000000    -0.475000000    -1.903000000
O     4.120000000    -3.178000000    -1.018000000
H     3.867000000    -2.303000000    -0.723000000
H     3.859000000    -3.205000000    -1.939000000
O    -0.462000000    -1.426000000    -5.390000000
H     0.205000000    -0.752000000    -5.521000000
H    -0.422000000    -1.624000000    -4.455000000
O    -3.827000000    -1.160000000    -3.738000000
H    -3.569000000    -1.545000000    -2.900000000
H    -4.068000000    -1.910000000    -4.282000000
O     0.281000000    -0.666000000     4.970000000
H    -0.181000000    -1.504000000     4.966000000
H     0.860000000    -0.715000000     5.730000000
O     5.611000000     2.966000000    -2.070000000
H     5.506000000     3.839000000    -2.450000000
H     4.741000000     2.573000000    -2.131000000
O     0.856000000     2.233000000     4.618000000
H     1.741000000     2.168000000     4.258000000
H     0.558000000     1.326000000     4.685000000
O     6.394000000     0.785000000    -3.454000000
H     6.152000000     1.462000000    -2.821000000
H     7.315000000     0.959000000    -3.649000000
O    -4.329000000     1.196000000     1.380000000
H    -5.236000000     1.135000000     1.081000000
H    -4.020000000     2.035000000     1.037000000
O    -0.562000000     4.074000000     2.986000000
H     0.157000000     4.705000000     2.949000000
H    -0.140000000     3.242000000     3.199000000
O    -2.576000000    -3.974000000     6.338000000
H    -1.942000000    -3.510000000     6.885000000
H    -2.231000000    -3.891000000     5.449000000
O     3.738000000     3.824000000    -5.907000000
H     3.192000000     3.936000000    -6.685000000
H     4.508000000     3.350000000    -6.220000000
O    -1.552000000    -5.558000000     0.868000000
H    -1.930000000    -5.223000000     0.055000000
H    -0.611000000    -5.600000000     0.695000000
O     4.436000000     2.048000000     1.355000000
H     4.095000000     1.513000000     0.638000000
H     3.798000000     2.755000000     1.450000000
O     3.030000000    -2.229000000    -5.984000000
H     3.946000000    -2.200000000    -5.710000000
H     2.680000000    -1.371000000    -5.742000000
O     1.164000000     4.595000000    -1.194000000
H     1.358000000     4.062000000    -1.964000000
H     0.336000000     4.248000000    -0.863000000
O    -1.287000000     2.993000000    -0.761000000
H    -1.877000000     2.802000000    -1.490000000
H    -0.821000000     2.172000000    -0.608000000
O     1.748000000     3.088000000    -3.605000000
H     2.472000000     3.125000000    -4.231000000
H     2.094000000     2.584000000    -2.868000000
O     2.940000000    -3.356000000    -3.500000000
H     3.295000000    -4.224000000    -3.692000000
H     2.938000000    -2.905000000    -4.344000000
O     4.107000000     5.346000000    -3.580000000
H     4.060000000     4.932000000    -4.442000000
H     3.195000000     5.529000000    -3.352000000
O     2.933000000     4.408000000     0.954000000
H     3.789000000     4.639000000     0.595000000
H     2.313000000     4.638000000     0.262000000
O     6.229000000     0.700000000     3.291000000
H     6.355000000     1.447000000     2.706000000
H     5.282000000     0.650000000     3.416000000
O     5.374000000     1.593000000    -5.764000000
H     6.306000000     1.436000000    -5.920000000
H     5.250000000     1.396000000    -4.835000000
O    -6.086000000    -0.925000000     2.813000000
H    -5.727000000    -0.040000000     2.871000000
H    -6.103000000    -1.116000000     1.875000000
O    -5.100000000     3.160000000    -2.259000000
H    -5.772000000     2.669000000    -1.786000000
H    -5.296000000     4.078000000    -2.069000000
O    -6.795000000     2.129000000     0.472000000
H    -7.597000000     1.618000000     0.354000000
H    -7.099000000     2.989000000     0.762000000
O     0.251000000    -3.056000000    -2.783000000
H     0.000000000    -2.900000000    -1.873000000
H     1.181000000    -2.833000000    -2.817000000
O     8.427000000    -2.442000000    -0.693000000
H     8.421000000    -2.450000000     0.264000000
H     7.628000000    -1.974000000    -0.934000000
O     3.540000000    -0.348000000     3.817000000
H     2.727000000    -0.675000000     3.432000000
H     3.286000000    -0.042000000     4.688000000
O     0.428000000     1.470000000    -5.862000000
H     0.520000000     2.353000000    -5.503000000
H     0.472000000     1.591000000    -6.810000000
O    -4.406000000    -4.287000000    -3.677000000
H    -4.747000000    -4.221000000    -4.569000000
H    -4.924000000    -3.658000000    -3.175000000
O     6.467000000     3.337000000     2.328000000
H     5.947000000     4.005000000     2.774000000
H     5.838000000     2.876000000     1.773000000
O    -4.639000000    -4.340000000     3.008000000
H    -4.006000000    -4.116000000     3.690000000
H    -4.430000000    -5.244000000     2.774000000
O     7.912000000     1.864000000    -0.721000000
H     8.020000000     1.084000000    -0.177000000
H     6.982000000     2.080000000    -0.649000000
O    -3.673000000    -1.337000000     4.699000000
H    -3.102000000    -1.553000000     3.962000000
H    -4.042000000    -0.483000000     4.474000000
O     5.261000000    -1.885000000     2.171000000
H     5.159000000    -1.408000000     1.348000000
H     4.586000000    -1.521000000     2.744000000
O    -5.264000000     0.791000000    -5.208000000
H    -5.161000000     1.703000000    -4.935000000
H    -4.527000000     0.335000000    -4.803000000
O    -5.862000000    -2.733000000    -2.108000000
H    -5.887000000    -2.566000000    -1.166000000
H    -6.297000000    -1.975000000    -2.498000000
O    -4.903000000    -2.815000000     0.591000000
H    -4.903000000    -2.844000000     1.548000000
H    -4.016000000    -2.541000000     0.359000000
O    -0.134000000    -3.351000000    -0.236000000
H     0.462000000    -3.836000000     0.334000000
H    -0.272000000    -2.518000000     0.214000000
O    -7.116000000    -0.057000000    -2.303000000
H    -7.276000000    -0.420000000    -1.432000000
H    -7.491000000     0.823000000    -2.269000000
O    -1.373000000    -4.001000000     4.015000000
H    -0.906000000    -4.680000000     4.501000000
H    -1.256000000    -4.239000000     3.096000000
O     2.775000000     0.300000000    -4.590000000
H     2.264000000     0.910000000    -5.123000000
H     2.748000000     0.672000000    -3.709000000
O    -2.777000000     3.629000000     1.345000000
H    -2.200000000     3.972000000     2.027000000
H    -2.184000000     3.343000000     0.651000000
O     3.971000000    -4.573000000     1.332000000
H     4.486000000    -4.141000000     2.014000000
H     4.170000000    -4.083000000     0.535000000
O    -2.468000000     3.113000000    -3.319000000
H    -2.381000000     2.432000000    -3.986000000
H    -3.365000000     3.021000000    -2.998000000
O    -7.523000000    -0.769000000     0.328000000
H    -7.903000000    -1.499000000     0.817000000
H    -8.229000000    -0.125000000     0.271000000
