158
-3043.14632
C     0.841000000    -0.071000000     1.283000000
H     1.476000000    -0.254000000     2.145000000
C    -0.052000000    -1.019000000     0.829000000
H    -0.151000000    -1.920000000     1.431000000
C    -0.837000000    -0.818000000    -0.279000000
H    -1.637000000    -1.556000000    -0.533000000
C    -0.685000000     0.326000000    -1.106000000
H    -1.353000000     0.461000000    -1.953000000
C     0.318000000     1.245000000    -0.750000000
H     0.466000000     2.120000000    -1.378000000
C     1.072000000     1.003000000     0.398000000
C     2.090000000     2.098000000     0.744000000
O     2.931000000     1.966000000     1.632000000
O     2.118000000     3.103000000     0.072000000
O     4.391000000    -0.330000000     2.028000000
H     3.792000000     0.412000000     1.953000000
H     4.459000000    -0.675000000     1.137000000
O    -2.736000000     2.153000000    -4.810000000
H    -2.790000000     2.355000000    -5.745000000
H    -2.078000000     2.760000000    -4.472000000
O    -1.850000000     2.217000000     1.761000000
H    -2.113000000     2.584000000     2.605000000
H    -1.433000000     1.384000000     1.981000000
O    -6.903000000    -0.089000000    -3.152000000
H    -7.588000000     0.534000000    -3.395000000
H    -6.778000000     0.048000000    -2.212000000
O     2.778000000     3.377000000    -5.005000000
H     2.103000000     3.300000000    -4.331000000
H     2.683000000     2.583000000    -5.532000000
O    -0.258000000     1.233000000     4.176000000
H    -0.944000000     0.633000000     3.882000000
H     0.557000000     0.749000000     4.043000000
O    -1.217000000    -4.268000000     0.104000000
H    -0.669000000    -4.438000000    -0.662000000
H    -0.629000000    -4.385000000     0.850000000
O     4.445000000    -3.835000000     0.169000000
H     3.727000000    -3.210000000     0.270000000
H     4.962000000    -3.489000000    -0.558000000
O     0.564000000    -3.567000000    -4.907000000
H     0.180000000    -2.959000000    -4.276000000
H     0.747000000    -3.030000000    -5.678000000
O     2.521000000     1.772000000     4.284000000
H     1.649000000     2.145000000     4.410000000
H     2.722000000     1.940000000     3.363000000
O    -3.699000000    -0.161000000    -3.280000000
H    -3.436000000     0.497000000    -3.923000000
H    -4.048000000    -0.883000000    -3.803000000
O    -6.498000000    -4.055000000     0.229000000
H    -6.244000000    -4.593000000     0.979000000
H    -5.740000000    -3.492000000     0.072000000
O    -3.758000000    -2.797000000    -4.928000000
H    -3.439000000    -2.947000000    -5.818000000
H    -3.199000000    -3.345000000    -4.377000000
O    -1.819000000    -0.664000000     3.194000000
H    -1.484000000    -1.015000000     2.369000000
H    -2.148000000    -1.430000000     3.664000000
O     5.546000000     2.517000000     0.930000000
H     4.690000000     2.175000000     1.186000000
H     5.427000000     2.807000000     0.025000000
O    -0.743000000     4.388000000    -3.916000000
H    -0.291000000     4.283000000    -3.079000000
H    -0.080000000     4.755000000    -4.502000000
O    -1.888000000    -7.270000000    -0.259000000
H    -2.719000000    -7.530000000    -0.658000000
H    -1.964000000    -6.323000000    -0.144000000
O    -4.898000000    -4.127000000    -2.553000000
H    -4.578000000    -4.564000000    -3.342000000
H    -5.168000000    -4.841000000    -1.976000000
O    -4.818000000    -1.721000000     1.611000000
H    -5.248000000    -0.961000000     2.004000000
H    -4.483000000    -1.401000000     0.774000000
O     2.242000000    -2.162000000    -0.863000000
H     1.329000000    -1.879000000    -0.802000000
H     2.712000000    -1.387000000    -1.171000000
O     2.114000000    -2.750000000     4.120000000
H     3.037000000    -2.814000000     4.366000000
H     1.722000000    -2.207000000     4.804000000
O     3.562000000     4.296000000    -1.759000000
H     4.191000000     4.951000000    -1.457000000
H     3.030000000     4.102000000    -0.988000000
O     3.580000000     4.660000000     2.363000000
H     3.411000000     5.255000000     1.633000000
H     3.457000000     3.786000000     1.994000000
O     4.654000000    -0.299000000     4.782000000
H     4.024000000     0.409000000     4.914000000
H     4.590000000    -0.506000000     3.850000000
O    -4.741000000    -1.752000000    -1.026000000
H    -4.681000000    -0.983000000    -1.592000000
H    -4.836000000    -2.488000000    -1.632000000
O     2.954000000     6.590000000     0.483000000
H     2.223000000     7.087000000     0.114000000
H     3.623000000     7.249000000     0.666000000
O    -1.217000000    -2.126000000    -3.297000000
H    -0.625000000    -1.500000000    -3.714000000
H    -1.507000000    -1.685000000    -2.498000000
O    -0.309000000    -5.913000000    -3.982000000
H    -0.008000000    -5.073000000    -4.330000000
H    -0.217000000    -5.826000000    -3.034000000
O     3.111000000    -0.239000000    -4.490000000
H     3.712000000    -0.971000000    -4.354000000
H     3.466000000     0.466000000    -3.949000000
O    -2.979000000     3.185000000    -0.885000000
H    -2.338000000     3.126000000    -0.176000000
H    -3.534000000     2.414000000    -0.770000000
O     0.767000000    -1.298000000     6.010000000
H    -0.108000000    -0.919000000     5.930000000
H     1.214000000    -0.735000000     6.642000000
O    -0.070000000    -0.439000000    -5.088000000
H     0.777000000    -0.007000000    -5.201000000
H    -0.334000000    -0.685000000    -5.974000000
O     3.317000000     6.474000000    -3.686000000
H     2.870000000     6.040000000    -2.960000000
H     2.679000000     6.469000000    -4.399000000
O     4.401000000     4.957000000     4.967000000
H     4.112000000     4.911000000     4.056000000
H     4.882000000     5.782000000     5.024000000
O     7.153000000     2.043000000     3.170000000
H     6.553000000     2.187000000     2.438000000
H     6.590000000     2.034000000     3.944000000
O     1.383000000    -4.784000000    -1.292000000
H     1.802000000    -3.925000000    -1.240000000
H     2.062000000    -5.400000000    -1.015000000
O    -3.216000000    -3.994000000     2.032000000
H    -3.878000000    -3.550000000     1.503000000
H    -2.436000000    -4.007000000     1.478000000
O     6.508000000     5.371000000     1.660000000
H     6.123000000     4.494000000     1.652000000
H     7.434000000     5.228000000     1.467000000
O    -5.320000000     1.372000000     2.459000000
H    -5.611000000     2.166000000     2.907000000
H    -4.407000000     1.546000000     2.231000000
O     4.258000000     0.113000000    -0.911000000
H     3.997000000     0.496000000    -1.749000000
H     5.040000000     0.601000000    -0.658000000
O    -1.672000000     6.634000000     1.371000000
H    -1.571000000     7.187000000     2.146000000
H    -0.906000000     6.061000000     1.384000000
O     0.776000000    -4.246000000     2.285000000
H     0.381000000    -4.821000000     2.940000000
H     1.514000000    -3.838000000     2.737000000
O    -0.172000000     4.234000000     1.150000000
H     0.632000000     3.772000000     0.914000000
H    -0.830000000     3.543000000     1.231000000
O    -3.704000000    -2.709000000     4.730000000
H    -3.537000000    -3.419000000     5.350000000
H    -3.692000000    -3.133000000     3.872000000
O     4.283000000     1.912000000    -3.190000000
H     5.081000000     2.321000000    -3.526000000
H     3.795000000     2.632000000    -2.791000000
O     1.055000000     4.321000000     4.975000000
H     0.514000000     4.462000000     5.753000000
H     1.891000000     4.006000000     5.319000000
O     0.588000000     4.573000000    -1.704000000
H     0.418000000     4.739000000    -0.777000000
H     1.364000000     4.012000000    -1.708000000
O     0.561000000     6.508000000     3.382000000
H     1.422000000     6.444000000     2.968000000
H     0.301000000     5.599000000     3.536000000
