158
-3055.21267
C     0.552000000    -1.094000000    -0.710000000
H     0.948000000    -1.991000000    -1.179000000
C    -0.336000000    -1.185000000     0.368000000
H    -0.508000000    -2.201000000     0.713000000
C    -0.849000000    -0.049000000     1.030000000
H    -1.498000000    -0.066000000     1.896000000
C    -0.479000000     1.165000000     0.444000000
H    -0.866000000     2.097000000     0.848000000
C     0.366000000     1.241000000    -0.696000000
H     0.562000000     2.228000000    -1.108000000
C     1.056000000     0.114000000    -1.288000000
C     1.972000000     0.092000000    -2.496000000
O     1.982000000     1.063000000    -3.223000000
O     2.766000000    -0.832000000    -2.636000000
O    -0.047000000     1.719000000    -4.898000000
H     0.439000000     1.388000000    -5.654000000
H     0.351000000     1.279000000    -4.147000000
O     4.309000000     0.351000000    -0.388000000
H     4.012000000     0.565000000    -1.273000000
H     3.613000000     0.677000000     0.183000000
O     6.033000000    -1.064000000     1.365000000
H     5.860000000    -0.508000000     0.606000000
H     5.199000000    -1.503000000     1.535000000
O     7.391000000    -0.570000000    -4.761000000
H     6.805000000    -0.450000000    -4.013000000
H     7.620000000    -1.499000000    -4.739000000
O    -3.192000000     3.455000000     1.266000000
H    -3.387000000     2.592000000     0.900000000
H    -4.044000000     3.887000000     1.327000000
O     3.348000000     3.054000000    -2.256000000
H     2.720000000     2.359000000    -2.454000000
H     3.891000000     3.117000000    -3.042000000
O    -5.331000000    -4.123000000     0.018000000
H    -6.066000000    -4.684000000     0.265000000
H    -4.996000000    -3.787000000     0.849000000
O     0.903000000    -3.303000000     5.969000000
H     0.373000000    -2.510000000     6.040000000
H     1.541000000    -3.105000000     5.283000000
O    -5.422000000     0.012000000     1.502000000
H    -5.955000000    -0.547000000     0.936000000
H    -4.664000000     0.242000000     0.966000000
O    -1.529000000    -1.482000000     5.034000000
H    -2.237000000    -0.949000000     4.671000000
H    -1.935000000    -2.331000000     5.209000000
O     0.575000000     1.969000000     4.617000000
H    -0.065000000     2.420000000     4.067000000
H     0.936000000     2.655000000     5.178000000
O     1.422000000    -7.431000000    -0.897000000
H     2.263000000    -7.610000000    -1.318000000
H     1.384000000    -6.476000000    -0.835000000
O     0.350000000     4.540000000    -4.362000000
H     0.156000000     4.775000000    -5.270000000
H     0.176000000     3.600000000    -4.316000000
O    -2.417000000     1.754000000    -6.305000000
H    -2.479000000     1.201000000    -7.084000000
H    -1.541000000     1.583000000    -5.959000000
O     5.385000000    -0.720000000    -2.803000000
H     5.330000000    -0.548000000    -1.862000000
H     4.479000000    -0.676000000    -3.108000000
O    -3.989000000    -2.082000000    -1.281000000
H    -3.292000000    -2.615000000    -1.665000000
H    -4.455000000    -2.681000000    -0.698000000
O     4.708000000     2.908000000    -4.791000000
H     5.380000000     2.967000000    -5.469000000
H     4.096000000     2.248000000    -5.116000000
O     1.558000000     5.177000000     0.564000000
H     1.543000000     4.564000000     1.299000000
H     0.870000000     4.864000000    -0.023000000
O     0.150000000    -0.860000000     7.599000000
H     0.942000000    -0.602000000     8.071000000
H    -0.345000000    -0.047000000     7.500000000
O     2.105000000     0.276000000     1.822000000
H     1.343000000     0.121000000     1.264000000
H     1.794000000     0.092000000     2.709000000
O     1.424000000    -4.504000000    -0.192000000
H     1.495000000    -4.304000000     0.742000000
H     2.176000000    -4.065000000    -0.589000000
O     0.907000000    -4.396000000     2.353000000
H     1.370000000    -3.864000000     3.000000000
H     1.282000000    -5.272000000     2.450000000
O    -1.825000000    -0.305000000    -3.166000000
H    -1.975000000    -1.226000000    -3.381000000
H    -1.636000000    -0.306000000    -2.228000000
O    -4.603000000     4.037000000    -2.251000000
H    -3.753000000     3.614000000    -2.369000000
H    -5.163000000     3.354000000    -1.883000000
O    -2.890000000     3.004000000     5.279000000
H    -3.526000000     2.460000000     5.743000000
H    -2.837000000     3.806000000     5.798000000
O    -1.334000000    -4.620000000    -1.273000000
H    -1.377000000    -4.032000000    -2.027000000
H    -0.432000000    -4.547000000    -0.963000000
O    -1.344000000     3.352000000     3.199000000
H    -2.023000000     3.300000000     3.872000000
H    -1.828000000     3.383000000     2.374000000
O     3.034000000    -1.667000000    -5.114000000
H     3.650000000    -0.970000000    -5.341000000
H     2.948000000    -1.611000000    -4.163000000
O    -1.393000000    -3.043000000    -3.463000000
H    -0.754000000    -2.614000000    -4.034000000
H    -1.918000000    -3.583000000    -4.054000000
O     3.481000000    -2.831000000    -1.148000000
H     3.197000000    -2.085000000    -1.676000000
H     4.215000000    -3.204000000    -1.635000000
O    -1.887000000    -4.617000000     1.552000000
H    -0.990000000    -4.405000000     1.810000000
H    -1.817000000    -4.876000000     0.633000000
O     3.633000000    -2.206000000     1.727000000
H     3.569000000    -2.676000000     0.895000000
H     3.051000000    -1.454000000     1.622000000
O    -2.134000000     2.951000000    -2.749000000
H    -1.747000000     2.119000000    -2.476000000
H    -1.647000000     3.194000000    -3.537000000
O     3.933000000     5.565000000    -4.659000000
H     4.102000000     4.623000000    -4.637000000
H     3.117000000     5.651000000    -5.151000000
O    -3.488000000     0.735000000    -0.385000000
H    -2.573000000     0.476000000    -0.281000000
H    -3.890000000     0.011000000    -0.865000000
O     3.245000000    -0.844000000     5.646000000
H     2.620000000    -0.629000000     4.953000000
H     3.506000000     0.004000000     6.005000000
O    -0.945000000     1.624000000     7.475000000
H    -0.914000000     1.852000000     6.546000000
H    -1.851000000     1.351000000     7.623000000
O     4.056000000     4.674000000    -0.353000000
H     3.158000000     4.876000000    -0.090000000
H     3.960000000     4.052000000    -1.074000000
O     3.280000000     1.004000000    -5.468000000
H     2.881000000     1.003000000    -4.598000000
H     2.583000000     0.704000000    -6.051000000
O     0.054000000     4.854000000     4.905000000
H     0.453000000     5.662000000     4.583000000
H    -0.389000000     4.486000000     4.141000000
O    -0.135000000     5.971000000    -1.970000000
H     0.774000000     6.203000000    -1.777000000
H    -0.101000000     5.577000000    -2.842000000
O    -4.300000000    -0.795000000     3.732000000
H    -5.134000000    -0.831000000     4.200000000
H    -4.513000000    -0.384000000     2.894000000
O     0.407000000    -3.144000000    -5.874000000
H     0.686000000    -4.060000000    -5.901000000
H     1.223000000    -2.645000000    -5.901000000
O     0.893000000     0.255000000    -7.369000000
H     0.701000000    -0.683000000    -7.395000000
H     1.184000000     0.464000000    -8.257000000
O     1.773000000     3.049000000     2.274000000
H     2.157000000     2.921000000     3.142000000
H     1.434000000     2.188000000     2.032000000
O    -4.196000000    -3.587000000     2.572000000
H    -3.289000000    -3.785000000     2.335000000
H    -4.184000000    -2.661000000     2.812000000
O     0.764000000    -0.757000000     4.112000000
H    -0.033000000    -1.251000000     4.307000000
H     0.624000000     0.095000000     4.524000000
O     3.526000000    -4.443000000    -4.166000000
H     3.571000000    -3.568000000    -4.551000000
H     2.640000000    -4.746000000    -4.365000000
