158
-3040.99379
C     1.451000000    -0.263000000    -0.055000000
H     2.499000000    -0.462000000    -0.265000000
C     0.463000000    -1.171000000    -0.458000000
H     0.731000000    -2.185000000    -0.744000000
C    -0.877000000    -0.774000000    -0.456000000
H    -1.659000000    -1.420000000    -0.914000000
C    -1.219000000     0.503000000    -0.021000000
H    -2.267000000     0.790000000     0.028000000
C    -0.223000000     1.383000000     0.427000000
H    -0.564000000     2.355000000     0.774000000
C     1.090000000     0.977000000     0.508000000
C     2.233000000     1.881000000     0.983000000
O     3.385000000     1.620000000     0.630000000
O     1.985000000     2.887000000     1.635000000
O    -4.402000000     1.568000000    -3.067000000
H    -3.894000000     0.824000000    -3.390000000
H    -3.749000000     2.242000000    -2.880000000
O    -6.336000000     1.939000000    -1.198000000
H    -6.950000000     1.209000000    -1.280000000
H    -5.669000000     1.766000000    -1.862000000
O     4.648000000    -0.255000000     1.790000000
H     4.339000000     0.460000000     1.234000000
H     5.045000000     0.181000000     2.544000000
O    -5.651000000    -1.042000000    -4.349000000
H    -5.240000000    -1.904000000    -4.287000000
H    -6.156000000    -0.959000000    -3.540000000
O    -7.421000000    -0.936000000    -1.951000000
H    -7.975000000    -1.547000000    -2.437000000
H    -7.217000000    -1.394000000    -1.136000000
O     5.476000000    -2.413000000    -1.802000000
H     6.150000000    -2.577000000    -2.462000000
H     4.650000000    -2.540000000    -2.268000000
O    -2.934000000    -5.327000000     0.381000000
H    -3.184000000    -5.778000000    -0.425000000
H    -3.671000000    -5.471000000     0.974000000
O     0.028000000     0.080000000     4.269000000
H     0.937000000     0.254000000     4.026000000
H    -0.192000000     0.775000000     4.889000000
O    -3.646000000    -4.284000000     4.455000000
H    -2.991000000    -3.595000000     4.568000000
H    -3.518000000    -4.592000000     3.558000000
O    -3.248000000     2.126000000     2.627000000
H    -4.085000000     1.877000000     2.235000000
H    -2.592000000     1.658000000     2.110000000
O     4.469000000    -2.696000000     0.726000000
H     4.531000000    -1.797000000     1.047000000
H     5.014000000    -2.708000000    -0.061000000
O    -2.980000000    -3.451000000    -5.314000000
H    -2.317000000    -3.266000000    -5.979000000
H    -3.732000000    -3.775000000    -5.810000000
O     7.237000000    -0.131000000     0.546000000
H     6.309000000    -0.341000000     0.645000000
H     7.677000000    -0.673000000     1.201000000
O    -0.879000000    -5.556000000     2.686000000
H    -0.531000000    -5.322000000     3.547000000
H    -1.222000000    -4.735000000     2.335000000
O     2.514000000     2.974000000     5.424000000
H     1.953000000     3.541000000     4.896000000
H     2.495000000     2.130000000     4.972000000
O    -1.929000000    -6.426000000    -2.779000000
H    -1.379000000    -6.256000000    -2.014000000
H    -2.049000000    -7.375000000    -2.781000000
O    -5.191000000     0.706000000     1.367000000
H    -4.904000000    -0.177000000     1.134000000
H    -5.767000000     0.967000000     0.648000000
O    -4.750000000    -1.750000000    -0.207000000
H    -4.013000000    -1.950000000     0.371000000
H    -4.356000000    -1.663000000    -1.075000000
O    -1.106000000    -2.663000000     2.082000000
H    -1.077000000    -2.012000000     1.380000000
H    -1.785000000    -2.343000000     2.676000000
O     6.493000000     2.508000000     1.231000000
H     6.917000000     1.669000000     1.055000000
H     7.130000000     2.993000000     1.756000000
O    -0.324000000     0.617000000    -3.188000000
H    -0.160000000     0.456000000    -2.259000000
H    -1.158000000     0.180000000    -3.363000000
O     1.967000000     1.509000000    -4.187000000
H     2.417000000     1.516000000    -3.342000000
H     1.039000000     1.584000000    -3.965000000
O     4.568000000     3.784000000     2.758000000
H     5.159000000     3.391000000     2.116000000
H     3.695000000     3.664000000     2.384000000
O     6.200000000     0.581000000     3.756000000
H     7.007000000     1.070000000     3.917000000
H     5.816000000     0.460000000     4.624000000
O    -4.012000000    -2.973000000    -2.469000000
H    -3.632000000    -3.634000000    -3.047000000
H    -4.823000000    -3.369000000    -2.152000000
O    -2.008000000     4.673000000     3.827000000
H    -1.931000000     5.452000000     3.276000000
H    -2.391000000     4.010000000     3.253000000
O     4.098000000     4.402000000    -0.447000000
H     3.668000000     3.595000000    -0.165000000
H     5.020000000     4.272000000    -0.228000000
O     0.807000000     4.325000000     3.668000000
H    -0.071000000     4.696000000     3.581000000
H     0.987000000     3.932000000     2.814000000
O    -0.832000000    -5.104000000    -4.932000000
H    -1.418000000    -4.352000000    -5.015000000
H    -1.225000000    -5.639000000    -4.242000000
O     3.804000000     1.764000000    -1.944000000
H     3.860000000     1.384000000    -1.068000000
H     4.687000000     2.089000000    -2.121000000
O     2.729000000     0.832000000     4.015000000
H     2.948000000    -0.100000000     3.994000000
H     2.885000000     1.135000000     3.120000000
O    -3.928000000    -2.223000000     2.512000000
H    -4.872000000    -2.063000000     2.523000000
H    -3.645000000    -2.050000000     3.409000000
O     1.304000000    -3.734000000    -4.039000000
H     0.489000000    -3.879000000    -4.520000000
H     1.353000000    -4.465000000    -3.424000000
O     2.313000000    -4.316000000     0.500000000
H     2.866000000    -5.073000000     0.309000000
H     2.926000000    -3.585000000     0.575000000
O     2.342000000     7.366000000    -0.102000000
H     2.752000000     6.864000000    -0.807000000
H     2.051000000     6.704000000     0.525000000
O     3.432000000     6.405000000     3.066000000
H     3.762000000     5.508000000     3.016000000
H     2.532000000     6.347000000     2.745000000
O    -2.679000000    -0.792000000    -3.714000000
H    -2.388000000    -1.063000000    -4.584000000
H    -2.985000000    -1.600000000    -3.301000000
O    -2.329000000    -1.289000000     4.500000000
H    -1.456000000    -0.926000000     4.353000000
H    -2.541000000    -1.045000000     5.401000000
O    -0.115000000     5.429000000    -1.877000000
H     0.335000000     5.359000000    -2.719000000
H    -0.189000000     6.371000000    -1.722000000
O    -7.227000000    -2.659000000     0.263000000
H    -7.555000000    -3.286000000    -0.382000000
H    -6.286000000    -2.610000000     0.093000000
O     3.108000000    -2.295000000    -2.977000000
H     2.717000000    -1.423000000    -3.033000000
H     2.395000000    -2.893000000    -3.199000000
O     0.698000000     5.016000000     0.633000000
H     0.404000000     4.941000000    -0.275000000
H     1.206000000     4.219000000     0.786000000
O    -2.222000000     4.201000000     0.438000000
H    -2.077000000     5.117000000     0.201000000
H    -3.157000000     4.150000000     0.634000000
O    -2.373000000     3.750000000    -2.252000000
H    -2.534000000     3.652000000    -1.314000000
H    -1.726000000     4.453000000    -2.312000000
O    -0.225000000    -5.534000000    -0.464000000
H    -1.055000000    -5.159000000    -0.171000000
H     0.434000000    -5.127000000     0.099000000
O     2.007000000    -5.767000000    -2.249000000
H     1.212000000    -5.792000000    -1.717000000
H     2.715000000    -5.951000000    -1.631000000
O    -1.130000000     6.578000000     2.167000000
H    -0.778000000     7.465000000     2.097000000
H    -0.699000000     6.093000000     1.463000000
O     1.258000000    -3.335000000     3.119000000
H     1.754000000    -3.443000000     2.308000000
H     0.421000000    -2.962000000     2.839000000
