158
-3009.63083
C     1.379000000    -0.198000000     0.503000000
H     2.385000000    -0.470000000     0.812000000
C     0.713000000    -0.946000000    -0.486000000
H     1.167000000    -1.825000000    -0.937000000
C    -0.586000000    -0.704000000    -0.822000000
H    -1.101000000    -1.355000000    -1.574000000
C    -1.260000000     0.328000000    -0.231000000
H    -2.271000000     0.599000000    -0.525000000
C    -0.623000000     1.125000000     0.761000000
H    -0.981000000     2.129000000     0.972000000
C     0.688000000     0.858000000     1.134000000
C     1.509000000     1.760000000     2.033000000
O     2.729000000     1.636000000     2.018000000
O     0.956000000     2.526000000     2.732000000
O    -4.333000000     3.227000000    -1.810000000
H    -4.213000000     3.566000000    -0.923000000
H    -4.382000000     4.008000000    -2.360000000
O    -4.266000000     0.469000000    -2.298000000
H    -4.870000000    -0.059000000    -1.776000000
H    -4.482000000     1.374000000    -2.071000000
O     3.669000000    -0.427000000     3.246000000
H     3.492000000     0.423000000     2.843000000
H     2.807000000    -0.752000000     3.508000000
O    -6.165000000     0.709000000    -4.645000000
H    -5.923000000    -0.081000000    -5.129000000
H    -5.418000000     0.877000000    -4.072000000
O     4.590000000    -5.187000000    -0.931000000
H     4.609000000    -5.880000000    -1.591000000
H     3.678000000    -4.898000000    -0.913000000
O    -2.924000000    -4.206000000    -0.106000000
H    -3.548000000    -4.480000000    -0.778000000
H    -2.067000000    -4.423000000    -0.473000000
O    -1.617000000     1.769000000     4.044000000
H    -1.887000000     2.621000000     4.388000000
H    -0.762000000     1.932000000     3.645000000
O    -2.128000000    -5.433000000     2.225000000
H    -2.103000000    -6.230000000     1.696000000
H    -2.410000000    -4.750000000     1.616000000
O     3.319000000    -3.090000000     2.170000000
H     3.584000000    -2.187000000     2.344000000
H     3.836000000    -3.348000000     1.406000000
O     0.165000000    -3.240000000    -4.823000000
H     0.954000000    -2.700000000    -4.872000000
H     0.130000000    -3.690000000    -5.667000000
O     4.267000000     0.894000000     6.458000000
H     4.794000000     0.170000000     6.120000000
H     3.426000000     0.808000000     6.008000000
O    -2.523000000    -4.754000000    -4.850000000
H    -2.036000000    -4.753000000    -5.673000000
H    -2.540000000    -5.673000000    -4.582000000
O     6.755000000     0.081000000    -0.300000000
H     7.268000000     0.118000000    -1.107000000
H     6.221000000    -0.708000000    -0.392000000
O     2.054000000     2.170000000     5.278000000
H     1.862000000     3.107000000     5.251000000
H     1.951000000     1.878000000     4.372000000
O    -4.768000000    -5.822000000    -1.887000000
H    -4.419000000    -6.707000000    -1.780000000
H    -5.387000000    -5.719000000    -1.164000000
O    -6.463000000     2.215000000    -0.538000000
H    -5.827000000     1.661000000    -0.086000000
H    -5.944000000     2.703000000    -1.177000000
O     1.750000000    -5.969000000    -1.434000000
H     1.531000000    -6.897000000    -1.347000000
H     1.852000000    -5.834000000    -2.376000000
O    -5.477000000    -2.470000000     1.615000000
H    -6.291000000    -2.503000000     1.113000000
H    -4.852000000    -2.972000000     1.092000000
O    -1.508000000    -2.142000000     1.586000000
H    -1.025000000    -1.565000000     0.994000000
H    -2.093000000    -2.637000000     1.012000000
O     3.957000000     1.569000000    -0.288000000
H     4.779000000     1.168000000    -0.007000000
H     3.487000000     1.747000000     0.527000000
O     1.860000000     5.269000000     1.234000000
H     2.500000000     5.968000000     1.369000000
H     1.907000000     4.744000000     2.033000000
O     4.044000000    -2.341000000    -3.039000000
H     3.749000000    -1.455000000    -3.250000000
H     3.663000000    -2.889000000    -3.725000000
O    -5.120000000     0.329000000     0.953000000
H    -4.360000000     0.147000000     1.506000000
H    -5.565000000    -0.515000000     0.871000000
O     5.027000000     2.767000000     2.601000000
H     5.547000000     1.969000000     2.693000000
H     4.135000000     2.457000000     2.448000000
O    -0.004000000     7.255000000     3.211000000
H     0.290000000     6.349000000     3.303000000
H     0.791000000     7.746000000     3.005000000
O    -4.898000000    -4.011000000    -3.967000000
H    -4.061000000    -4.262000000    -4.357000000
H    -4.990000000    -4.585000000    -3.207000000
O     0.220000000     1.979000000    -2.558000000
H    -0.103000000     1.599000000    -1.741000000
H    -0.445000000     1.752000000    -3.207000000
O    -2.322000000    -1.607000000    -6.003000000
H    -2.194000000    -2.483000000    -5.638000000
H    -1.456000000    -1.202000000    -5.962000000
O    -3.335000000     4.087000000     4.022000000
H    -4.011000000     3.471000000     3.742000000
H    -3.628000000     4.934000000     3.687000000
O     3.299000000     0.398000000    -2.516000000
H     2.438000000     0.793000000    -2.657000000
H     3.485000000     0.552000000    -1.590000000
O    -2.868000000     5.633000000    -2.064000000
H    -3.727000000     5.764000000    -1.661000000
H    -2.250000000     5.698000000    -1.336000000
O     0.894000000    -1.121000000     3.733000000
H     0.216000000    -1.397000000     3.115000000
H     0.543000000    -1.353000000     4.593000000
O    -0.807000000    -5.324000000    -1.388000000
H     0.123000000    -5.108000000    -1.457000000
H    -0.945000000    -6.005000000    -2.047000000
O     2.705000000     3.968000000    -0.940000000
H     2.268000000     4.253000000    -0.138000000
H     3.059000000     3.105000000    -0.727000000
O     1.480000000    -4.763000000     3.359000000
H     0.653000000    -4.284000000     3.409000000
H     2.119000000    -4.109000000     3.078000000
O     0.909000000     4.937000000     5.270000000
H     0.344000000     4.836000000     4.503000000
H     0.382000000     5.440000000     5.890000000
O     6.147000000     0.134000000     3.073000000
H     6.524000000     0.276000000     3.941000000
H     5.287000000    -0.251000000     3.245000000
O     6.091000000     5.111000000     3.641000000
H     5.561000000     5.834000000     3.304000000
H     5.767000000     4.340000000     3.176000000
O    -2.092000000     1.202000000    -3.880000000
H    -2.718000000     0.694000000    -3.364000000
H    -1.980000000     0.698000000    -4.686000000
O    -0.451000000     5.311000000    -0.503000000
H     0.214000000     5.529000000     0.150000000
H     0.028000000     4.840000000    -1.184000000
O    -3.136000000    -0.065000000     2.751000000
H    -2.467000000     0.425000000     3.229000000
H    -2.641000000    -0.686000000     2.216000000
O    -5.205000000    -1.613000000    -5.676000000
H    -4.337000000    -1.330000000    -5.964000000
H    -5.048000000    -2.440000000    -5.220000000
O     5.541000000    -2.301000000    -0.788000000
H     4.887000000    -2.315000000    -1.487000000
H     5.886000000    -3.193000000    -0.764000000
O    -0.748000000     4.578000000     2.937000000
H    -0.328000000     3.719000000     2.882000000
H    -1.680000000     4.397000000     2.815000000
O    -4.980000000     1.845000000     3.279000000
H    -5.740000000     1.627000000     2.740000000
H    -4.251000000     1.387000000     2.861000000
O     6.696000000     3.805000000     0.255000000
H     7.529000000     3.338000000     0.319000000
H     6.194000000     3.505000000     1.013000000
O    -2.883000000     4.220000000     0.675000000
H    -2.086000000     4.153000000     0.148000000
H    -2.921000000     5.141000000     0.935000000
O    -2.617000000    -0.253000000     5.776000000
H    -2.082000000     0.392000000     5.314000000
H    -2.441000000    -1.078000000     5.325000000
