158
-3049.85268
C     1.475000000    -0.003000000     0.488000000
H     2.543000000    -0.078000000     0.680000000
C     0.984000000    -0.736000000    -0.610000000
H     1.694000000    -1.305000000    -1.204000000
C    -0.366000000    -0.655000000    -0.954000000
H    -0.773000000    -1.236000000    -1.757000000
C    -1.287000000     0.154000000    -0.230000000
H    -2.332000000     0.107000000    -0.525000000
C    -0.813000000     0.879000000     0.799000000
H    -1.528000000     1.520000000     1.309000000
C     0.515000000     0.822000000     1.206000000
C     0.926000000     1.718000000     2.397000000
O     1.979000000     1.429000000     2.956000000
O     0.102000000     2.372000000     3.007000000
O     5.428000000     1.187000000     4.508000000
H     4.944000000     0.945000000     5.298000000
H     6.344000000     1.016000000     4.727000000
O    -1.928000000    -1.512000000    -3.736000000
H    -2.029000000    -1.972000000    -2.902000000
H    -2.639000000    -0.870000000    -3.742000000
O     4.176000000     0.788000000     6.914000000
H     4.118000000    -0.167000000     6.950000000
H     4.331000000     1.053000000     7.821000000
O     0.486000000    -1.004000000     3.970000000
H     0.717000000    -0.187000000     3.528000000
H    -0.452000000    -0.926000000     4.143000000
O    -0.759000000    -6.337000000    -0.502000000
H    -0.606000000    -6.783000000     0.331000000
H    -0.979000000    -7.040000000    -1.113000000
O     1.455000000     4.132000000    -1.508000000
H     2.299000000     4.069000000    -1.061000000
H     1.415000000     3.349000000    -2.057000000
O    -2.901000000     1.730000000     4.586000000
H    -3.552000000     1.786000000     3.886000000
H    -2.231000000     2.369000000     4.342000000
O     5.567000000    -2.029000000     2.109000000
H     4.787000000    -1.787000000     2.608000000
H     6.150000000    -1.275000000     2.196000000
O    -1.503000000     1.658000000    -6.092000000
H    -1.353000000     1.563000000    -5.152000000
H    -0.666000000     1.970000000    -6.437000000
O    -5.385000000    -2.999000000     0.698000000
H    -5.830000000    -3.720000000     1.143000000
H    -5.662000000    -2.216000000     1.174000000
O     3.390000000    -1.533000000    -2.910000000
H     4.065000000    -1.370000000    -2.251000000
H     3.598000000    -2.400000000    -3.258000000
O     5.159000000     2.794000000    -2.376000000
H     5.462000000     1.964000000    -2.008000000
H     4.707000000     3.226000000    -1.651000000
O     3.046000000     4.741000000     4.174000000
H     3.940000000     4.591000000     4.480000000
H     2.561000000     3.967000000     4.462000000
O     1.653000000    -3.640000000    -5.700000000
H     2.376000000    -3.023000000    -5.808000000
H     0.883000000    -3.164000000    -6.013000000
O    -4.334000000    -3.649000000    -5.200000000
H    -5.206000000    -4.004000000    -5.025000000
H    -3.743000000    -4.207000000    -4.696000000
O     0.058000000    -3.917000000    -1.368000000
H    -0.602000000    -3.261000000    -1.594000000
H    -0.448000000    -4.688000000    -1.115000000
O     1.913000000    -5.040000000    -3.246000000
H     1.726000000    -4.461000000    -3.985000000
H     1.509000000    -4.607000000    -2.494000000
O    -6.282000000    -1.145000000     2.425000000
H    -5.924000000    -0.354000000     2.020000000
H    -7.094000000    -0.854000000     2.841000000
O    -1.913000000     2.445000000    -3.003000000
H    -2.764000000     2.006000000    -2.973000000
H    -1.807000000     2.821000000    -2.129000000
O     1.853000000     0.098000000    -4.516000000
H     2.431000000    -0.545000000    -4.106000000
H     1.514000000     0.616000000    -3.786000000
O    -3.665000000    -2.567000000    -1.731000000
H    -3.897000000    -3.262000000    -2.347000000
H    -4.187000000    -2.754000000    -0.951000000
O    -3.588000000     5.741000000     2.692000000
H    -2.977000000     5.075000000     2.377000000
H    -4.109000000     5.971000000     1.923000000
O    -1.934000000     6.551000000     4.815000000
H    -2.552000000     6.447000000     4.091000000
H    -1.471000000     5.714000000     4.857000000
O     6.125000000     1.034000000    -0.260000000
H     6.705000000     0.782000000     0.459000000
H     5.274000000     1.173000000     0.156000000
O     4.477000000     1.684000000     1.854000000
H     3.569000000     1.437000000     2.025000000
H     4.959000000     1.369000000     2.619000000
O    -4.281000000    -1.220000000    -6.591000000
H    -4.091000000    -2.016000000    -6.093000000
H    -5.097000000    -1.415000000    -7.052000000
O    -0.694000000     4.075000000     4.954000000
H    -0.315000000     3.659000000     4.179000000
H    -0.142000000     3.780000000     5.678000000
O     0.650000000     1.561000000    -2.582000000
H     0.693000000     1.219000000    -1.689000000
H    -0.286000000     1.618000000    -2.771000000
O     2.168000000     2.207000000     5.325000000
H     2.805000000     1.660000000     5.785000000
H     2.033000000     1.763000000     4.488000000
O    -1.987000000    -0.859000000     4.538000000
H    -2.646000000    -1.369000000     4.066000000
H    -2.383000000     0.006000000     4.643000000
O    -0.303000000    -1.141000000    -6.095000000
H    -0.852000000    -1.145000000    -5.310000000
H     0.448000000    -0.597000000    -5.860000000
O     0.854000000    -0.317000000     7.741000000
H     1.742000000    -0.664000000     7.653000000
H     0.584000000    -0.120000000     6.844000000
O     3.261000000    -0.956000000     3.585000000
H     2.462000000    -1.457000000     3.747000000
H     2.962000000    -0.051000000     3.494000000
O     3.907000000     3.667000000    -0.244000000
H     4.278000000     4.545000000    -0.165000000
H     4.104000000     3.247000000     0.594000000
O    -4.030000000     0.199000000    -2.481000000
H    -4.112000000    -0.705000000    -2.178000000
H    -4.831000000     0.357000000    -2.981000000
O    -4.950000000     1.660000000     2.789000000
H    -5.695000000     2.143000000     3.147000000
H    -5.136000000     1.593000000     1.852000000
O    -1.973000000     4.083000000    -0.718000000
H    -1.892000000     4.279000000     0.216000000
H    -1.288000000     4.608000000    -1.133000000
O    -2.418000000    -5.231000000    -3.829000000
H    -2.516000000    -5.897000000    -3.150000000
H    -1.480000000    -5.223000000    -4.024000000
O     4.585000000    -1.957000000    -0.545000000
H     3.928000000    -2.650000000    -0.482000000
H     4.993000000    -1.935000000     0.321000000
O    -1.230000000     4.366000000     1.928000000
H    -0.695000000     5.149000000     2.057000000
H    -0.769000000     3.679000000     2.408000000
O     4.362000000    -3.971000000    -3.818000000
H     3.572000000    -4.486000000    -3.654000000
H     5.002000000    -4.608000000    -4.134000000
O    -2.874000000     4.126000000     6.927000000
H    -3.555000000     4.284000000     6.273000000
H    -2.091000000     3.927000000     6.414000000
O     2.947000000    -4.070000000    -0.177000000
H     2.827000000    -4.256000000     0.754000000
H     2.058000000    -4.013000000    -0.526000000
O     0.849000000     3.913000000     7.108000000
H     1.350000000     3.172000000     6.769000000
H     1.397000000     4.676000000     6.924000000
O    -1.739000000    -2.714000000    -7.777000000
H    -2.400000000    -3.159000000    -7.246000000
H    -1.312000000    -2.109000000    -7.170000000
O    -5.360000000     0.461000000     0.298000000
H    -6.041000000    -0.076000000    -0.107000000
H    -4.660000000     0.491000000    -0.354000000
O    -0.351000000    -3.130000000     1.554000000
H     0.039000000    -2.258000000     1.622000000
H    -0.168000000    -3.405000000     0.655000000
O    -2.947000000    -4.080000000     2.294000000
H    -3.275000000    -4.503000000     1.500000000
H    -2.043000000    -3.846000000     2.084000000
