158
-3054.49534
C     1.382000000     0.114000000     0.424000000
H     2.454000000     0.115000000     0.603000000
C     0.849000000    -0.907000000    -0.359000000
H     1.542000000    -1.590000000    -0.844000000
C    -0.532000000    -0.995000000    -0.614000000
H    -0.959000000    -1.770000000    -1.239000000
C    -1.294000000     0.098000000    -0.210000000
H    -2.362000000     0.130000000    -0.412000000
C    -0.705000000     1.197000000     0.526000000
H    -1.407000000     1.965000000     0.840000000
C     0.658000000     1.238000000     0.744000000
C     1.267000000     2.416000000     1.454000000
O     2.469000000     2.519000000     1.589000000
O     0.507000000     3.163000000     1.956000000
O    -4.051000000     0.300000000    -4.416000000
H    -3.802000000     0.911000000    -3.723000000
H    -3.938000000    -0.566000000    -4.024000000
O    -4.914000000     0.992000000    -0.135000000
H    -4.947000000     0.035000000    -0.146000000
H    -5.256000000     1.253000000    -0.990000000
O     4.697000000     0.720000000     2.219000000
H     4.070000000     1.430000000     2.078000000
H     5.264000000     1.037000000     2.921000000
O    -3.309000000    -1.888000000    -2.608000000
H    -3.074000000    -2.779000000    -2.867000000
H    -3.577000000    -1.968000000    -1.692000000
O    -5.953000000     1.787000000    -2.486000000
H    -6.550000000     1.638000000    -3.219000000
H    -5.838000000     2.737000000    -2.460000000
O     5.561000000    -2.246000000    -1.185000000
H     6.084000000    -2.779000000    -1.785000000
H     4.661000000    -2.358000000    -1.489000000
O    -2.309000000    -4.396000000    -0.170000000
H    -1.780000000    -4.728000000     0.555000000
H    -1.956000000    -3.523000000    -0.344000000
O     0.558000000    -0.855000000     3.974000000
H     0.242000000    -1.249000000     3.161000000
H    -0.123000000    -0.229000000     4.218000000
O     5.191000000     2.630000000    -2.000000000
H     5.739000000     1.903000000    -1.702000000
H     4.357000000     2.222000000    -2.230000000
O    -1.849000000     3.148000000     3.235000000
H    -2.490000000     3.312000000     2.543000000
H    -1.008000000     3.378000000     2.842000000
O     5.862000000    -3.003000000     1.298000000
H     6.764000000    -2.925000000     1.607000000
H     5.929000000    -2.945000000     0.345000000
O    -4.391000000    -6.929000000     0.090000000
H    -3.909000000    -6.134000000    -0.137000000
H    -3.918000000    -7.632000000    -0.355000000
O     6.035000000     0.457000000    -0.483000000
H     5.815000000    -0.458000000    -0.660000000
H     5.741000000     0.605000000     0.416000000
O    -4.124000000     3.611000000     1.290000000
H    -4.206000000     2.942000000     0.611000000
H    -4.638000000     4.349000000     0.962000000
O    -6.344000000    -3.819000000    -2.203000000
H    -5.953000000    -4.687000000    -2.101000000
H    -6.169000000    -3.379000000    -1.371000000
O    -4.442000000    -1.863000000     0.075000000
H    -5.149000000    -2.508000000     0.098000000
H    -4.251000000    -1.684000000     0.996000000
O    -1.548000000    -2.122000000     1.803000000
H    -1.388000000    -1.474000000     1.118000000
H    -2.482000000    -2.319000000     1.733000000
O     6.605000000     3.974000000     1.442000000
H     6.829000000     3.520000000     0.630000000
H     7.437000000     4.330000000     1.754000000
O    -1.011000000    -0.567000000    -3.952000000
H    -1.665000000    -0.412000000    -3.270000000
H    -1.079000000    -1.503000000    -4.142000000
O     2.941000000    -0.732000000    -4.365000000
H     3.051000000    -0.065000000    -3.687000000
H     2.192000000    -0.430000000    -4.879000000
O     5.523000000     4.313000000     3.868000000
H     5.807000000     4.033000000     2.997000000
H     5.422000000     3.499000000     4.360000000
O     6.329000000     1.710000000     4.265000000
H     7.210000000     1.740000000     3.893000000
H     6.300000000     0.884000000     4.748000000
O    -3.546000000    -4.654000000    -3.274000000
H    -4.427000000    -4.741000000    -3.637000000
H    -3.123000000    -5.491000000    -3.466000000
O    -1.012000000     5.344000000     4.417000000
H    -1.343000000     5.949000000     3.752000000
H    -1.349000000     4.489000000     4.150000000
O    -5.157000000     1.470000000     2.594000000
H    -4.859000000     2.379000000     2.586000000
H    -5.207000000     1.226000000     1.670000000
O     3.354000000     4.881000000     0.572000000
H     2.965000000     4.282000000     1.210000000
H     4.272000000     4.946000000     0.835000000
O     1.649000000     4.374000000     4.159000000
H     0.894000000     4.881000000     4.455000000
H     1.348000000     3.939000000     3.362000000
O     2.492000000     1.706000000    -2.651000000
H     1.644000000     2.078000000    -2.892000000
H     2.571000000     1.877000000    -1.712000000
O     2.784000000     1.477000000     4.625000000
H     2.336000000     0.904000000     4.003000000
H     2.499000000     2.359000000     4.385000000
O    -5.860000000    -4.141000000     0.865000000
H    -6.514000000    -4.113000000     1.564000000
H    -5.213000000    -4.777000000     1.168000000
O    -2.091000000     0.486000000     4.299000000
H    -2.700000000     0.534000000     5.036000000
H    -2.009000000     1.390000000     3.996000000
O     0.801000000    -5.797000000    -4.715000000
H     0.282000000    -6.600000000    -4.683000000
H     0.176000000    -5.099000000    -4.519000000
O     3.926000000     6.394000000     3.110000000
H     4.501000000     5.714000000     3.462000000
H     3.061000000     5.985000000     3.082000000
O     1.913000000     5.358000000    -1.727000000
H     2.350000000     5.083000000    -2.532000000
H     2.546000000     5.170000000    -1.034000000
O     0.984000000     0.480000000    -5.718000000
H     0.664000000     0.379000000    -6.614000000
H     0.195000000     0.636000000    -5.199000000
O    -1.042000000    -3.682000000    -4.204000000
H    -1.502000000    -3.341000000    -4.971000000
H    -1.728000000    -4.089000000    -3.675000000
O    -3.908000000    -0.962000000     2.536000000
H    -4.421000000    -0.214000000     2.844000000
H    -3.011000000    -0.765000000     2.806000000
O    -0.115000000     2.240000000    -3.060000000
H    -0.223000000     2.803000000    -2.294000000
H    -0.991000000     1.893000000    -3.228000000
O     3.233000000    -2.974000000    -2.796000000
H     3.014000000    -2.266000000    -3.402000000
H     2.407000000    -3.176000000    -2.356000000
O    -0.284000000     5.215000000    -0.108000000
H     0.361000000     5.422000000    -0.784000000
H     0.177000000     4.628000000     0.491000000
O    -2.047000000     4.537000000    -2.223000000
H    -1.368000000     4.820000000    -1.610000000
H    -2.720000000     5.216000000    -2.165000000
O     3.498000000    -6.164000000    -1.348000000
H     2.891000000    -5.424000000    -1.339000000
H     4.238000000    -5.873000000    -0.815000000
O    -2.901000000     1.922000000    -2.402000000
H    -2.493000000     2.782000000    -2.497000000
H    -3.515000000     2.027000000    -1.675000000
O     0.053000000    -4.126000000     1.256000000
H    -0.384000000    -3.291000000     1.420000000
H     0.634000000    -4.245000000     2.008000000
O     1.106000000    -4.356000000    -1.142000000
H     0.841000000    -4.232000000    -0.231000000
H     0.306000000    -4.210000000    -1.647000000
O    -0.118000000     7.137000000     2.211000000
H     0.084000000     8.044000000     2.440000000
H     0.373000000     6.978000000     1.405000000
O     4.447000000    -1.857000000     3.298000000
H     4.644000000    -2.402000000     2.536000000
H     4.662000000    -0.967000000     3.018000000
O     0.887000000    -7.865000000    -0.198000000
H     1.250000000    -6.996000000    -0.369000000
H     1.161000000    -8.392000000    -0.948000000
