158
-3003.93668
C     1.421000000     0.216000000    -0.113000000
H     2.471000000     0.208000000    -0.395000000
C     0.666000000    -0.575000000    -0.935000000
H     1.195000000    -1.085000000    -1.737000000
C    -0.714000000    -0.724000000    -0.702000000
H    -1.334000000    -1.307000000    -1.425000000
C    -1.306000000    -0.049000000     0.351000000
H    -2.371000000    -0.170000000     0.535000000
C    -0.515000000     0.664000000     1.211000000
H    -0.995000000     1.073000000     2.096000000
C     0.879000000     0.854000000     1.018000000
C     1.777000000     1.750000000     1.789000000
O     2.946000000     1.713000000     1.644000000
O     1.265000000     2.330000000     2.747000000
O    -4.712000000     2.483000000    -0.362000000
H    -3.913000000     2.778000000    -0.798000000
H    -5.411000000     2.991000000    -0.774000000
O     4.955000000    -0.093000000     2.049000000
H     4.265000000     0.549000000     1.881000000
H     5.150000000     0.004000000     2.981000000
O    -5.658000000     1.710000000    -4.314000000
H    -5.825000000     0.991000000    -3.704000000
H    -4.729000000     1.910000000    -4.200000000
O    -6.971000000    -0.509000000    -2.591000000
H    -6.615000000    -0.221000000    -1.750000000
H    -6.661000000    -1.409000000    -2.687000000
O    -3.066000000    -3.148000000     1.073000000
H    -3.540000000    -2.570000000     0.475000000
H    -2.912000000    -2.613000000     1.852000000
O     0.219000000     1.954000000     5.039000000
H    -0.359000000     2.716000000     5.066000000
H     0.543000000     1.930000000     4.138000000
O    -1.500000000    -6.180000000    -1.685000000
H    -1.958000000    -6.710000000    -2.337000000
H    -0.927000000    -6.799000000    -1.233000000
O     6.659000000     0.178000000    -0.837000000
H     7.415000000    -0.383000000    -0.667000000
H     6.601000000     0.220000000    -1.792000000
O    -3.881000000     4.194000000     4.555000000
H    -4.703000000     3.836000000     4.890000000
H    -3.797000000     3.821000000     3.678000000
O     4.541000000    -2.491000000     0.713000000
H     4.753000000    -1.688000000     1.188000000
H     4.594000000    -2.244000000    -0.210000000
O    -0.967000000    -3.138000000    -4.381000000
H    -0.633000000    -2.502000000    -5.014000000
H    -0.264000000    -3.781000000    -4.293000000
O    -3.061000000    -0.943000000    -3.830000000
H    -2.590000000    -1.762000000    -3.677000000
H    -3.762000000    -1.179000000    -4.438000000
O     7.243000000     3.369000000     1.160000000
H     6.657000000     3.014000000     0.492000000
H     7.985000000     2.765000000     1.174000000
O    -4.895000000    -1.866000000    -5.509000000
H    -5.836000000    -2.039000000    -5.500000000
H    -4.758000000    -1.329000000    -6.289000000
O     2.876000000     4.769000000     5.286000000
H     2.746000000     3.883000000     5.624000000
H     3.260000000     4.640000000     4.418000000
O    -2.630000000    -4.031000000    -2.577000000
H    -1.982000000    -3.794000000    -3.241000000
H    -2.184000000    -4.673000000    -2.025000000
O    -4.905000000     1.762000000     2.624000000
H    -4.816000000     0.821000000     2.776000000
H    -4.871000000     1.854000000     1.672000000
O    -5.747000000     0.008000000    -0.170000000
H    -5.343000000     0.874000000    -0.222000000
H    -5.046000000    -0.599000000    -0.408000000
O    -0.005000000    -2.293000000     2.125000000
H     0.138000000    -1.717000000     1.374000000
H    -0.893000000    -2.089000000     2.418000000
O     5.048000000     2.083000000    -0.367000000
H     5.626000000     1.324000000    -0.445000000
H     4.466000000     1.867000000     0.362000000
O     0.087000000     1.939000000    -2.366000000
H    -0.027000000     1.197000000    -1.773000000
H     0.166000000     1.543000000    -3.234000000
O     3.208000000     0.076000000    -3.188000000
H     3.402000000     1.011000000    -3.113000000
H     3.414000000    -0.139000000    -4.098000000
O    -5.257000000    -1.091000000     2.721000000
H    -5.665000000    -0.859000000     3.555000000
H    -5.334000000    -2.044000000     2.673000000
O     4.290000000     3.793000000     3.218000000
H     5.164000000     3.625000000     3.570000000
H     3.982000000     2.937000000     2.922000000
O     5.221000000     0.002000000     4.601000000
H     6.015000000     0.465000000     4.868000000
H     4.646000000     0.053000000     5.365000000
O    -4.219000000    -1.901000000    -1.268000000
H    -4.217000000    -1.285000000    -2.000000000
H    -3.618000000    -2.595000000    -1.537000000
O    -0.535000000     0.753000000    -4.640000000
H     0.123000000     0.969000000    -5.301000000
H    -1.326000000     0.563000000    -5.143000000
O     3.959000000     4.861000000     0.452000000
H     3.500000000     4.660000000     1.268000000
H     4.665000000     4.215000000     0.409000000
O    -2.708000000    -5.308000000    -5.671000000
H    -2.238000000    -5.000000000    -6.446000000
H    -2.166000000    -5.027000000    -4.934000000
O    -1.077000000     4.212000000     4.322000000
H    -1.873000000     4.727000000     4.193000000
H    -0.517000000     4.446000000     3.582000000
O     3.852000000     2.869000000    -2.610000000
H     4.181000000     3.767000000    -2.653000000
H     4.231000000     2.513000000    -1.806000000
O     2.832000000     2.248000000     6.582000000
H     3.040000000     1.381000000     6.928000000
H     2.000000000     2.130000000     6.122000000
O    -2.400000000    -1.825000000     3.284000000
H    -2.836000000    -1.028000000     3.586000000
H    -2.564000000    -2.465000000     3.976000000
O     1.743000000    -4.155000000    -1.588000000
H     1.048000000    -4.388000000    -2.204000000
H     1.666000000    -4.800000000    -0.885000000
O     1.661000000     4.027000000    -0.918000000
H     1.768000000     3.105000000    -1.150000000
H     2.519000000     4.291000000    -0.584000000
O     2.586000000    -2.558000000     2.812000000
H     1.734000000    -2.567000000     2.377000000
H     3.217000000    -2.698000000     2.106000000
O    -2.999000000     1.853000000    -3.404000000
H    -2.126000000     2.239000000    -3.472000000
H    -2.842000000     0.909000000    -3.369000000
O    -1.110000000     1.034000000     7.188000000
H    -0.779000000     1.285000000     6.326000000
H    -2.062000000     1.033000000     7.088000000
O     0.669000000    -1.567000000    -6.663000000
H     1.196000000    -2.206000000    -7.144000000
H     1.206000000    -0.775000000    -6.650000000
O     4.300000000    -2.266000000    -2.205000000
H     3.976000000    -1.429000000    -2.539000000
H     3.510000000    -2.781000000    -2.040000000
O     0.923000000     4.823000000     1.666000000
H     1.300000000     4.039000000     2.067000000
H     0.498000000     4.503000000     0.870000000
O    -2.867000000     4.386000000     1.672000000
H    -3.477000000     5.023000000     1.301000000
H    -2.420000000     4.012000000     0.913000000
O    -4.161000000    -6.530000000    -0.597000000
H    -3.282000000    -6.300000000    -0.899000000
H    -4.731000000    -6.319000000    -1.337000000
O     3.761000000    -3.013000000    -5.153000000
H     3.879000000    -2.364000000    -5.846000000
H     3.968000000    -2.542000000    -4.346000000
O    -2.103000000     3.290000000    -1.036000000
H    -1.427000000     2.734000000    -1.423000000
H    -1.716000000     4.166000000    -1.028000000
O    -0.825000000    -4.766000000     1.275000000
H    -0.314000000    -4.018000000     1.584000000
H    -1.580000000    -4.374000000     0.835000000
O     1.981000000    -1.004000000     4.970000000
H     2.129000000    -1.447000000     4.134000000
H     1.213000000    -0.454000000     4.817000000
O     0.414000000     5.769000000     6.579000000
H    -0.471000000     6.134000000     6.576000000
H     0.493000000     5.324000000     5.736000000
