158
-3008.18769
C     1.058000000     0.363000000     0.936000000
H     1.883000000     0.401000000     1.643000000
C     1.124000000    -0.731000000    -0.027000000
H     1.988000000    -1.377000000    -0.159000000
C     0.052000000    -0.919000000    -0.853000000
H     0.030000000    -1.679000000    -1.577000000
C    -1.052000000    -0.040000000    -0.794000000
H    -1.887000000    -0.242000000    -1.460000000
C    -1.070000000     0.998000000     0.145000000
H    -1.886000000     1.709000000     0.249000000
C    -0.036000000     1.185000000     1.037000000
C    -0.134000000     2.251000000     2.108000000
O     0.634000000     2.312000000     3.002000000
O    -0.990000000     3.128000000     2.043000000
O     3.292000000     4.248000000    -0.423000000
H     3.959000000     3.591000000    -0.227000000
H     2.610000000     3.764000000    -0.890000000
O    -1.684000000    -1.396000000    -6.104000000
H    -1.944000000    -2.170000000    -6.604000000
H    -0.967000000    -1.014000000    -6.610000000
O    -4.067000000     4.348000000    -2.252000000
H    -4.162000000     3.528000000    -2.736000000
H    -4.359000000     4.138000000    -1.365000000
O    -4.472000000    -0.251000000     2.484000000
H    -5.200000000     0.347000000     2.659000000
H    -4.727000000    -1.069000000     2.910000000
O     2.290000000     1.193000000     6.409000000
H     2.054000000     1.482000000     7.291000000
H     3.226000000     1.381000000     6.338000000
O     2.251000000    -4.296000000    -1.917000000
H     1.543000000    -4.163000000    -2.547000000
H     1.805000000    -4.439000000    -1.082000000
O     4.348000000    -6.276000000    -2.110000000
H     3.757000000    -6.977000000    -1.832000000
H     3.789000000    -5.502000000    -2.171000000
O    -0.616000000     8.210000000     3.656000000
H    -0.629000000     8.384000000     2.714000000
H    -0.550000000     7.258000000     3.723000000
O    -1.482000000    -2.834000000     1.630000000
H    -1.135000000    -1.942000000     1.591000000
H    -1.970000000    -2.865000000     2.452000000
O    -6.076000000    -2.266000000    -0.496000000
H    -5.364000000    -2.814000000    -0.825000000
H    -6.453000000    -2.771000000     0.226000000
O     3.934000000     0.706000000    -2.983000000
H     4.656000000     1.320000000    -2.852000000
H     4.311000000    -0.152000000    -2.786000000
O     5.741000000    -3.043000000     1.377000000
H     5.553000000    -3.749000000     0.758000000
H     5.230000000    -3.264000000     2.155000000
O    -0.102000000     5.220000000     0.705000000
H    -0.632000000     5.136000000    -0.087000000
H    -0.262000000     4.410000000     1.188000000
O     3.367000000    -2.972000000    -5.154000000
H     3.649000000    -3.871000000    -5.324000000
H     3.878000000    -2.441000000    -5.765000000
O     0.909000000    -1.524000000    -6.832000000
H     1.605000000    -0.926000000    -7.103000000
H     1.367000000    -2.241000000    -6.393000000
O     0.505000000    -4.385000000     0.815000000
H    -0.197000000    -3.828000000     1.150000000
H     0.083000000    -4.930000000     0.151000000
O     2.050000000    -6.668000000     0.972000000
H     1.610000000    -5.829000000     1.111000000
H     1.371000000    -7.324000000     1.131000000
O    -1.382000000     1.371000000    -5.036000000
H    -1.533000000     0.450000000    -5.247000000
H    -0.619000000     1.364000000    -4.458000000
O     4.564000000     0.679000000     3.537000000
H     3.970000000     1.382000000     3.271000000
H     5.009000000     0.423000000     2.730000000
O    -4.637000000     0.181000000    -0.698000000
H    -5.214000000    -0.582000000    -0.680000000
H    -4.218000000     0.185000000     0.163000000
O     0.746000000    -3.640000000    -4.105000000
H     1.437000000    -3.096000000    -4.482000000
H     0.338000000    -4.067000000    -4.858000000
O    -5.411000000    -1.532000000    -4.901000000
H    -4.735000000    -1.340000000    -4.251000000
H    -5.038000000    -2.233000000    -5.435000000
O    -2.070000000    -0.615000000     3.198000000
H    -1.740000000     0.039000000     3.816000000
H    -2.954000000    -0.318000000     2.985000000
O     0.329000000     7.785000000     1.263000000
H     1.258000000     7.935000000     1.086000000
H     0.230000000     6.833000000     1.235000000
O     1.189000000     1.111000000    -4.196000000
H     1.894000000     1.675000000    -4.512000000
H     1.637000000     0.401000000    -3.736000000
O     1.362000000     2.612000000    -1.565000000
H     1.038000000     2.695000000    -2.462000000
H     1.281000000     1.678000000    -1.367000000
O     4.218000000    -1.895000000    -2.470000000
H     4.077000000    -1.965000000    -3.415000000
H     3.658000000    -2.573000000    -2.094000000
O    -3.882000000    -4.180000000     0.553000000
H    -3.744000000    -4.459000000    -0.352000000
H    -3.036000000    -3.826000000     0.826000000
O    -3.564000000     6.370000000     0.972000000
H    -3.145000000     7.180000000     0.679000000
H    -4.489000000     6.486000000     0.754000000
O    -1.382000000     5.121000000    -1.956000000
H    -1.098000000     4.943000000    -2.853000000
H    -2.184000000     4.609000000    -1.853000000
O     3.510000000     2.669000000     2.219000000
H     3.768000000     3.316000000     1.563000000
H     2.570000000     2.808000000     2.336000000
O    -3.592000000     6.562000000     4.171000000
H    -2.651000000     6.570000000     3.993000000
H    -3.899000000     5.735000000     3.800000000
O    -0.947000000     5.520000000     3.803000000
H    -1.311000000     5.040000000     4.546000000
H    -0.812000000     4.852000000     3.130000000
O     1.990000000     3.567000000     5.090000000
H     1.592000000     3.350000000     4.247000000
H     2.096000000     2.723000000     5.530000000
O    -3.688000000    -4.248000000    -2.107000000
H    -3.031000000    -3.679000000    -2.509000000
H    -4.029000000    -4.770000000    -2.833000000
O    -5.125000000     1.831000000    -2.945000000
H    -6.079000000     1.812000000    -2.875000000
H    -4.816000000     1.505000000    -2.099000000
O     0.150000000    -6.682000000    -3.150000000
H    -0.185000000    -7.216000000    -2.430000000
H    -0.154000000    -5.796000000    -2.954000000
O     5.184000000     2.322000000    -0.100000000
H     5.746000000     2.257000000    -0.873000000
H     5.676000000     1.878000000     0.591000000
O    -2.315000000     3.379000000     5.011000000
H    -2.583000000     3.576000000     4.113000000
H    -1.756000000     2.606000000     4.931000000
O    -0.494000000     1.013000000     5.111000000
H    -0.070000000     1.504000000     4.407000000
H     0.183000000     0.922000000     5.781000000
O     3.111000000     5.508000000     6.442000000
H     4.030000000     5.315000000     6.623000000
H     2.834000000     4.815000000     5.842000000
O     6.683000000    -1.337000000    -0.488000000
H     6.529000000    -1.954000000     0.228000000
H     6.076000000    -1.611000000    -1.175000000
O    -1.970000000    -2.082000000    -3.286000000
H    -1.515000000    -1.738000000    -4.054000000
H    -1.629000000    -1.567000000    -2.554000000
O    -3.363000000     3.970000000     2.161000000
H    -3.563000000     4.819000000     1.767000000
H    -2.485000000     3.759000000     1.843000000
O     2.033000000    -3.259000000     2.677000000
H     1.416000000    -3.614000000     2.038000000
H     1.738000000    -2.360000000     2.821000000
O    -5.499000000     3.992000000     0.020000000
H    -5.144000000     3.891000000     0.903000000
H    -5.678000000     4.929000000    -0.060000000
O     2.018000000    -1.017000000     4.206000000
H     2.818000000    -0.895000000     3.694000000
H     1.904000000    -0.189000000     4.672000000
O    -1.073000000    -6.088000000    -0.386000000
H    -1.573000000    -5.925000000     0.413000000
H    -1.695000000    -6.513000000    -0.976000000
