158
-3054.76816
C     1.318000000     0.054000000     0.615000000
H     2.272000000    -0.080000000     1.117000000
C     1.073000000    -0.645000000    -0.555000000
H     1.868000000    -1.131000000    -1.114000000
C    -0.243000000    -0.627000000    -1.007000000
H    -0.559000000    -1.124000000    -1.945000000
C    -1.268000000     0.037000000    -0.302000000
H    -2.294000000    -0.065000000    -0.644000000
C    -0.984000000     0.797000000     0.824000000
H    -1.815000000     1.363000000     1.239000000
C     0.342000000     0.782000000     1.314000000
C     0.706000000     1.450000000     2.639000000
O     1.266000000     0.789000000     3.500000000
O     0.400000000     2.605000000     2.795000000
O     4.551000000     2.084000000     1.206000000
H     4.426000000     1.167000000     0.963000000
H     3.972000000     2.568000000     0.618000000
O    -1.288000000     0.987000000    -6.022000000
H    -1.798000000     1.520000000    -5.412000000
H    -0.609000000     0.584000000    -5.479000000
O    -3.649000000    -2.298000000    -5.148000000
H    -3.666000000    -2.532000000    -6.076000000
H    -3.000000000    -2.889000000    -4.764000000
O     4.823000000    -0.596000000     7.201000000
H     4.341000000    -0.640000000     6.375000000
H     5.741000000    -0.531000000     6.938000000
O    -3.230000000    -0.660000000     2.885000000
H    -3.384000000     0.229000000     3.205000000
H    -3.087000000    -1.178000000     3.677000000
O     0.962000000    -2.862000000    -4.485000000
H     0.214000000    -3.198000000    -3.991000000
H     0.933000000    -3.337000000    -5.316000000
O     2.610000000     1.355000000     7.660000000
H     3.130000000     0.622000000     7.330000000
H     2.996000000     2.128000000     7.249000000
O    -3.297000000     3.898000000    -2.367000000
H    -2.426000000     3.581000000    -2.604000000
H    -3.850000000     3.116000000    -2.385000000
O     1.513000000     6.964000000     5.640000000
H     1.367000000     6.204000000     5.077000000
H     0.829000000     7.585000000     5.387000000
O    -1.286000000    -2.645000000     1.662000000
H    -1.522000000    -1.717000000     1.685000000
H    -0.971000000    -2.834000000     2.546000000
O    -5.614000000    -3.407000000    -0.185000000
H    -6.521000000    -3.710000000    -0.137000000
H    -5.370000000    -3.527000000    -1.103000000
O     4.106000000    -1.285000000    -3.193000000
H     4.288000000    -1.413000000    -2.262000000
H     4.458000000    -2.068000000    -3.615000000
O     4.294000000    -4.354000000     1.659000000
H     3.551000000    -4.955000000     1.600000000
H     4.103000000    -3.812000000     2.424000000
O    -1.856000000     4.871000000     6.290000000
H    -2.813000000     4.853000000     6.278000000
H    -1.596000000     4.124000000     5.750000000
O     3.083000000     5.909000000     0.052000000
H     2.684000000     5.734000000     0.904000000
H     2.990000000     5.087000000    -0.430000000
O     0.854000000    -0.162000000    -4.955000000
H     0.963000000    -1.059000000    -4.640000000
H     1.490000000     0.347000000    -4.453000000
O    -3.651000000     0.387000000    -4.086000000
H    -3.545000000    -0.527000000    -4.350000000
H    -4.077000000     0.342000000    -3.230000000
O     1.687000000    -3.755000000     3.557000000
H     1.086000000    -3.064000000     3.834000000
H     1.244000000    -4.569000000     3.798000000
O     5.680000000     0.009000000     2.983000000
H     5.765000000    -0.172000000     2.046000000
H     5.579000000     0.959000000     3.035000000
O    -1.312000000     2.408000000    -3.534000000
H    -1.711000000     1.550000000    -3.395000000
H    -0.410000000     2.305000000    -3.231000000
O    -4.892000000    -0.663000000     0.728000000
H    -4.984000000    -1.615000000     0.699000000
H    -4.191000000    -0.509000000     1.361000000
O     2.272000000    -4.054000000    -2.059000000
H     3.081000000    -4.476000000    -2.347000000
H     1.945000000    -3.606000000    -2.840000000
O    -1.778000000    -4.183000000    -4.289000000
H    -2.449000000    -4.676000000    -3.816000000
H    -1.345000000    -4.836000000    -4.839000000
O     0.081000000    -1.542000000     4.146000000
H     0.693000000    -0.904000000     3.780000000
H    -0.435000000    -1.043000000     4.780000000
O     1.515000000     2.817000000    -2.838000000
H     1.465000000     3.201000000    -3.713000000
H     2.133000000     2.092000000    -2.929000000
O     2.295000000     3.095000000     0.172000000
H     1.934000000     2.585000000    -0.554000000
H     1.545000000     3.261000000     0.744000000
O    -0.782000000     6.035000000     0.791000000
H    -0.659000000     5.683000000    -0.091000000
H    -1.018000000     6.952000000     0.652000000
O     3.844000000     3.164000000     3.688000000
H     4.011000000     2.744000000     2.844000000
H     3.252000000     3.887000000     3.483000000
O     1.731000000     4.992000000     2.746000000
H     0.979000000     5.582000000     2.801000000
H     1.348000000     4.133000000     2.568000000
O     4.034000000     3.754000000     6.387000000
H     3.944000000     3.431000000     5.491000000
H     4.950000000     3.588000000     6.611000000
O    -1.188000000    -6.575000000    -1.262000000
H    -0.699000000    -5.753000000    -1.312000000
H    -1.984000000    -6.350000000    -0.782000000
O     2.864000000    -1.198000000    -6.921000000
H     2.244000000    -0.677000000    -6.411000000
H     2.392000000    -1.408000000    -7.728000000
O    -4.645000000     0.937000000    -1.586000000
H    -5.594000000     1.055000000    -1.635000000
H    -4.517000000     0.316000000    -0.870000000
O     4.728000000    -0.528000000     0.305000000
H     5.230000000    -0.224000000    -0.450000000
H     4.483000000    -1.427000000     0.084000000
O    -1.346000000     2.760000000     4.856000000
H    -0.799000000     2.721000000     4.072000000
H    -0.945000000     2.134000000     5.459000000
O     0.299000000     0.887000000     5.921000000
H     0.715000000     0.827000000     5.061000000
H     1.013000000     1.109000000     6.518000000
O     4.198000000    -2.975000000    -0.708000000
H     4.440000000    -3.403000000     0.113000000
H     3.335000000    -3.330000000    -0.918000000
O     3.547000000     1.298000000    -3.372000000
H     3.444000000     0.347000000    -3.401000000
H     4.483000000     1.434000000    -3.226000000
O    -3.797000000     1.745000000     3.726000000
H    -4.132000000     2.543000000     3.316000000
H    -2.991000000     2.020000000     4.162000000
O     0.143000000    -4.492000000    -0.167000000
H    -0.202000000    -3.686000000     0.216000000
H     0.865000000    -4.202000000    -0.725000000
O    -1.599000000     5.010000000     3.307000000
H    -1.113000000     5.035000000     2.483000000
H    -1.595000000     4.087000000     3.559000000
O     1.060000000    -1.602000000     8.013000000
H     0.964000000    -2.500000000     7.696000000
H     0.349000000    -1.121000000     7.590000000
O     3.958000000    -2.798000000     4.109000000
H     3.143000000    -3.221000000     3.839000000
H     3.679000000    -1.987000000     4.533000000
O     6.209000000     0.570000000    -1.484000000
H     6.214000000     1.525000000    -1.408000000
H     7.133000000     0.323000000    -1.448000000
O    -5.275000000     1.071000000    -6.014000000
H    -4.847000000     1.920000000    -6.123000000
H    -4.673000000     0.567000000    -5.466000000
O    -4.346000000     4.132000000     2.959000000
H    -3.418000000     4.365000000     2.960000000
H    -4.740000000     4.716000000     3.607000000
O     3.452000000    -0.050000000     4.810000000
H     3.983000000    -0.035000000     4.014000000
H     2.590000000     0.258000000     4.530000000
O    -6.541000000    -2.743000000    -3.847000000
H    -7.024000000    -2.422000000    -3.086000000
H    -5.623000000    -2.709000000    -3.580000000
