158
-3080.25893
C    -0.321000000     0.119000000     1.368000000
H    -0.521000000     0.229000000     2.430000000
C     0.009000000    -1.078000000     0.737000000
H    -0.053000000    -2.017000000     1.281000000
C     0.284000000    -1.045000000    -0.594000000
H     0.447000000    -2.026000000    -1.060000000
C     0.147000000     0.091000000    -1.344000000
H     0.104000000    -0.052000000    -2.420000000
C    -0.110000000     1.319000000    -0.745000000
H    -0.249000000     2.190000000    -1.380000000
C    -0.411000000     1.350000000     0.647000000
C    -0.550000000     2.658000000     1.364000000
O    -0.836000000     2.646000000     2.561000000
O    -0.414000000     3.765000000     0.844000000
O    -3.990000000     2.732000000     4.654000000
H    -4.031000000     1.902000000     4.179000000
H    -3.487000000     3.311000000     4.082000000
O    -3.787000000    -4.392000000    -0.757000000
H    -3.166000000    -4.064000000    -0.106000000
H    -3.555000000    -5.314000000    -0.866000000
O     1.969000000     3.631000000    -2.924000000
H     2.788000000     3.171000000    -2.739000000
H     1.453000000     3.005000000    -3.433000000
O    -4.654000000     2.656000000    -0.046000000
H    -5.240000000     2.931000000     0.659000000
H    -4.041000000     3.385000000    -0.145000000
O    -2.398000000     4.417000000     3.454000000
H    -1.834000000     3.879000000     2.900000000
H    -1.860000000     5.176000000     3.679000000
O     0.074000000    -4.928000000    -0.681000000
H     0.947000000    -4.831000000    -0.302000000
H    -0.351000000    -5.592000000    -0.139000000
O    -3.782000000     6.004000000     1.493000000
H    -3.290000000     5.638000000     2.228000000
H    -3.333000000     5.671000000     0.716000000
O     5.931000000    -4.202000000    -2.189000000
H     6.736000000    -3.684000000    -2.233000000
H     5.451000000    -3.966000000    -2.983000000
O     2.602000000     7.451000000    -0.560000000
H     1.803000000     7.841000000    -0.204000000
H     2.428000000     6.509000000    -0.562000000
O     4.037000000     2.031000000    -1.979000000
H     4.710000000     2.566000000    -1.558000000
H     4.068000000     1.196000000    -1.513000000
O    -4.317000000     3.570000000    -2.922000000
H    -4.037000000     4.179000000    -2.238000000
H    -5.169000000     3.251000000    -2.624000000
O    -3.939000000     0.449000000    -1.207000000
H    -4.647000000     0.190000000    -1.798000000
H    -4.180000000     1.329000000    -0.917000000
O    -5.135000000    -0.531000000     1.098000000
H    -5.913000000    -0.654000000     0.553000000
H    -4.489000000    -0.143000000     0.508000000
O     2.487000000    -5.007000000     0.610000000
H     3.335000000    -4.601000000     0.428000000
H     2.688000000    -5.716000000     1.221000000
O     1.553000000    -5.035000000     4.891000000
H     2.446000000    -5.273000000     5.143000000
H     1.664000000    -4.444000000     4.146000000
O    -2.128000000    -3.757000000     1.323000000
H    -2.286000000    -3.579000000     2.250000000
H    -1.194000000    -3.959000000     1.274000000
O     0.625000000    -0.582000000     6.066000000
H    -0.218000000    -0.371000000     6.469000000
H     0.436000000    -1.324000000     5.491000000
O     1.028000000     6.081000000    -3.023000000
H     1.517000000     5.259000000    -2.998000000
H     1.616000000     6.696000000    -3.462000000
O    -0.403000000     6.363000000     1.759000000
H    -0.159000000     6.688000000     0.893000000
H    -0.405000000     5.410000000     1.666000000
O     2.866000000    -0.658000000     3.389000000
H     2.906000000    -0.521000000     2.442000000
H     2.512000000     0.160000000     3.736000000
O     3.235000000    -5.201000000    -4.397000000
H     3.719000000    -6.023000000    -4.480000000
H     2.333000000    -5.471000000    -4.224000000
O     1.685000000    -3.317000000    -2.918000000
H     1.387000000    -4.028000000    -2.350000000
H     2.397000000    -3.702000000    -3.429000000
O    -2.938000000    -0.427000000    -4.991000000
H    -2.707000000     0.232000000    -4.337000000
H    -2.802000000    -1.264000000    -4.546000000
O     3.049000000     2.861000000     1.536000000
H     2.677000000     3.481000000     0.909000000
H     2.658000000     3.103000000     2.375000000
O     2.075000000     1.446000000     4.874000000
H     1.588000000     0.775000000     5.351000000
H     1.419000000     2.109000000     4.657000000
O     0.024000000    -6.299000000    -4.566000000
H    -0.687000000    -6.795000000    -4.971000000
H    -0.387000000    -5.487000000    -4.272000000
O     2.995000000     2.139000000    -6.051000000
H     3.212000000     1.686000000    -6.865000000
H     2.081000000     1.909000000    -5.884000000
O     4.782000000    -0.724000000    -1.034000000
H     4.067000000    -0.721000000    -0.397000000
H     5.431000000    -1.321000000    -0.663000000
O    -3.844000000     0.174000000     3.458000000
H    -4.488000000    -0.187000000     2.850000000
H    -2.997000000    -0.052000000     3.072000000
O    -4.445000000    -1.117000000     5.852000000
H    -4.956000000    -1.608000000     5.208000000
H    -3.763000000    -0.686000000     5.337000000
O     0.233000000     3.334000000     4.733000000
H    -0.539000000     3.218000000     5.287000000
H    -0.069000000     3.111000000     3.853000000
O    -2.819000000    -2.179000000    -2.495000000
H    -3.577000000    -2.632000000    -2.125000000
H    -2.367000000    -1.809000000    -1.736000000
O    -1.727000000     5.747000000    -3.059000000
H    -1.935000000     5.093000000    -3.727000000
H    -0.777000000     5.846000000    -3.109000000
O    -1.528000000    -4.615000000    -2.867000000
H    -1.119000000    -4.798000000    -2.021000000
H    -1.865000000    -3.723000000    -2.783000000
O     1.263000000     7.187000000     3.786000000
H     0.849000000     6.931000000     2.962000000
H     0.901000000     8.053000000     3.976000000
O     0.565000000     1.738000000    -4.574000000
H     0.073000000     2.481000000    -4.925000000
H    -0.107000000     1.117000000    -4.293000000
O     4.828000000    -2.517000000    -4.412000000
H     4.436000000    -1.661000000    -4.241000000
H     4.248000000    -2.922000000    -5.056000000
O    -2.175000000    -3.370000000     3.960000000
H    -2.832000000    -3.956000000     4.335000000
H    -1.490000000    -3.320000000     4.627000000
O     3.010000000     0.199000000     0.671000000
H     3.237000000     1.124000000     0.768000000
H     2.130000000     0.207000000     0.295000000
O     1.144000000    -1.154000000    -5.114000000
H     1.239000000    -1.812000000    -4.425000000
H     1.766000000    -0.466000000    -4.876000000
O     3.758000000     0.100000000    -3.913000000
H     3.744000000     0.708000000    -4.652000000
H     4.052000000     0.630000000    -3.172000000
O     1.723000000     4.653000000    -0.415000000
H     1.891000000     4.278000000    -1.280000000
H     0.834000000     4.370000000    -0.201000000
O    -1.259000000    -7.098000000     0.444000000
H    -1.731000000    -7.033000000     1.274000000
H    -0.899000000    -7.985000000     0.441000000
O    -2.421000000     1.671000000    -3.193000000
H    -2.594000000     1.110000000    -2.437000000
H    -3.116000000     2.328000000    -3.167000000
O    -1.010000000    -1.534000000    -6.610000000
H    -0.227000000    -1.485000000    -6.061000000
H    -1.649000000    -0.979000000    -6.164000000
O     1.660000000    -3.200000000     2.874000000
H     1.946000000    -2.287000000     2.832000000
H     1.858000000    -3.553000000     2.006000000
O    -2.696000000     4.686000000    -0.538000000
H    -1.923000000     4.217000000    -0.224000000
H    -2.377000000     5.209000000    -1.273000000
O     5.135000000    -5.103000000     0.223000000
H     5.286000000    -4.670000000    -0.617000000
H     5.513000000    -5.975000000     0.114000000
