158
-3028.73269
C     0.095000000     0.946000000     1.159000000
H     0.145000000     1.480000000     2.105000000
C     0.271000000    -0.411000000     1.195000000
H     0.514000000    -0.962000000     2.099000000
C     0.096000000    -1.177000000     0.044000000
H     0.191000000    -2.241000000     0.066000000
C    -0.167000000    -0.578000000    -1.158000000
H    -0.088000000    -1.190000000    -2.053000000
C    -0.244000000     0.861000000    -1.183000000
H    -0.216000000     1.319000000    -2.169000000
C    -0.281000000     1.587000000    -0.008000000
C    -0.470000000     3.046000000    -0.103000000
O    -0.453000000     3.666000000     0.895000000
O    -0.697000000     3.607000000    -1.144000000
O    -2.740000000     0.148000000     2.341000000
H    -2.336000000    -0.045000000     1.496000000
H    -3.318000000    -0.597000000     2.506000000
O    -4.201000000     5.482000000    -4.272000000
H    -3.379000000     5.395000000    -4.754000000
H    -4.384000000     4.599000000    -3.949000000
O    -2.452000000    -4.166000000    -5.571000000
H    -2.564000000    -3.581000000    -4.822000000
H    -2.342000000    -5.034000000    -5.183000000
O     2.173000000    -0.845000000     4.089000000
H     2.897000000    -0.759000000     3.470000000
H     2.189000000    -0.031000000     4.592000000
O    -3.101000000     2.770000000    -2.459000000
H    -3.753000000     2.872000000    -1.765000000
H    -2.278000000     3.047000000    -2.057000000
O     3.673000000    -4.254000000    -1.229000000
H     4.542000000    -4.473000000    -1.566000000
H     3.833000000    -3.567000000    -0.582000000
O    -2.787000000     4.859000000     0.773000000
H    -3.272000000     4.225000000     0.245000000
H    -1.955000000     4.425000000     0.962000000
O    -0.709000000    -5.745000000    -2.680000000
H    -0.296000000    -6.137000000    -3.450000000
H    -0.159000000    -6.021000000    -1.947000000
O    -4.865000000     3.474000000    -0.219000000
H    -5.739000000     3.825000000    -0.387000000
H    -5.011000000     2.741000000     0.379000000
O    -2.578000000     0.954000000    -4.387000000
H    -3.444000000     0.600000000    -4.585000000
H    -2.752000000     1.720000000    -3.840000000
O     2.839000000     5.577000000    -1.814000000
H     2.107000000     5.657000000    -1.203000000
H     2.793000000     6.369000000    -2.348000000
O     1.682000000    -6.260000000    -1.279000000
H     2.125000000    -5.412000000    -1.305000000
H     2.374000000    -6.898000000    -1.457000000
O    -0.393000000    -0.342000000     4.641000000
H     0.468000000    -0.483000000     4.248000000
H    -0.967000000    -0.962000000     4.191000000
O     1.533000000    -0.413000000    -4.111000000
H     2.003000000    -1.033000000    -3.553000000
H     0.721000000    -0.865000000    -4.341000000
O    -4.612000000    -5.200000000     0.765000000
H    -5.363000000    -4.948000000     0.228000000
H    -4.929000000    -5.934000000     1.291000000
O    -4.711000000     5.403000000     2.952000000
H    -4.219000000     4.960000000     2.260000000
H    -5.628000000     5.216000000     2.751000000
O     1.225000000    -5.736000000     4.245000000
H     0.858000000    -5.387000000     5.058000000
H     1.573000000    -4.969000000     3.790000000
O    -2.676000000    -1.907000000    -3.999000000
H    -3.625000000    -1.795000000    -4.059000000
H    -2.329000000    -1.015000000    -4.001000000
O    -1.516000000    -2.654000000     3.952000000
H    -1.991000000    -3.393000000     3.572000000
H    -1.046000000    -3.028000000     4.697000000
O     4.507000000    -0.229000000     2.345000000
H     5.253000000    -0.675000000     2.745000000
H     4.810000000     0.668000000     2.206000000
O     0.621000000     5.999000000    -0.281000000
H     0.029000000     6.629000000    -0.692000000
H     0.089000000     5.212000000    -0.162000000
O    -3.378000000     2.798000000     5.812000000
H    -2.663000000     2.780000000     5.176000000
H    -4.173000000     2.824000000     5.279000000
O     4.684000000     2.165000000     1.242000000
H     4.151000000     1.585000000     0.698000000
H     4.059000000     2.792000000     1.608000000
O     2.193000000    -2.235000000    -7.068000000
H     1.502000000    -2.669000000    -7.568000000
H     1.771000000    -1.982000000    -6.247000000
O     3.019000000     0.507000000    -0.174000000
H     3.152000000    -0.381000000     0.157000000
H     2.069000000     0.594000000    -0.249000000
O     1.448000000     6.577000000     4.077000000
H     0.813000000     7.239000000     4.350000000
H     0.930000000     5.933000000     3.594000000
O     1.865000000     8.074000000     1.086000000
H     1.579000000     7.242000000     0.709000000
H     1.914000000     7.906000000     2.028000000
O    -1.362000000     1.992000000     3.917000000
H    -1.972000000     1.632000000     3.274000000
H    -0.815000000     1.249000000     4.170000000
O     2.586000000     1.851000000    -5.065000000
H     1.994000000     2.447000000    -4.607000000
H     2.470000000     1.011000000    -4.621000000
O    -3.294000000    -0.773000000    -0.862000000
H    -2.412000000    -0.879000000    -1.218000000
H    -3.521000000    -1.639000000    -0.522000000
O    -0.002000000     4.419000000     3.381000000
H    -0.533000000     3.825000000     3.911000000
H    -0.143000000     4.127000000     2.480000000
O     0.404000000     6.715000000    -4.786000000
H     0.614000000     5.861000000    -5.164000000
H    -0.065000000     7.176000000    -5.481000000
O     4.659000000    -2.112000000     0.342000000
H     4.479000000    -1.553000000     1.098000000
H     5.598000000    -2.012000000     0.188000000
O    -0.081000000    -2.608000000    -5.168000000
H     0.205000000    -3.521000000    -5.159000000
H    -0.878000000    -2.601000000    -4.637000000
O     3.051000000    -1.970000000    -2.442000000
H     3.719000000    -1.369000000    -2.111000000
H     3.303000000    -2.824000000    -2.092000000
O    -3.204000000    -4.664000000    -2.268000000
H    -3.122000000    -4.264000000    -1.403000000
H    -2.357000000    -5.086000000    -2.418000000
O    -2.798000000    -3.347000000     0.078000000
H    -3.361000000    -3.824000000     0.688000000
H    -1.931000000    -3.734000000     0.198000000
O     2.524000000     3.794000000     1.497000000
H     2.157000000     4.061000000     0.654000000
H     1.772000000     3.770000000     2.089000000
O     2.411000000    -3.433000000     3.554000000
H     3.249000000    -3.146000000     3.192000000
H     2.092000000    -2.678000000     4.048000000
O    -2.538000000    -5.237000000     2.789000000
H    -3.450000000    -5.045000000     2.570000000
H    -2.251000000    -5.844000000     2.107000000
O     2.204000000     1.170000000     5.806000000
H     2.243000000     2.126000000     5.799000000
H     2.087000000     0.942000000     6.729000000
O    -2.867000000     7.581000000     0.173000000
H    -2.745000000     6.766000000     0.660000000
H    -3.676000000     7.952000000     0.525000000
O     1.388000000     3.476000000    -3.163000000
H     2.145000000     3.977000000    -2.858000000
H     0.698000000     3.677000000    -2.531000000
O    -2.754000000    -0.322000000     6.317000000
H    -1.895000000    -0.722000000     6.181000000
H    -2.712000000     0.505000000     5.836000000
O    -1.667000000    -7.534000000     0.724000000
H    -0.988000000    -6.885000000     0.909000000
H    -1.734000000    -8.047000000     1.529000000
O    -0.548000000     0.198000000    -6.652000000
H    -1.241000000     0.808000000    -6.399000000
H    -0.024000000     0.088000000    -5.859000000
O     0.076000000    -5.161000000     1.050000000
H     0.207000000    -4.571000000     1.792000000
H     0.844000000    -5.022000000     0.496000000
O    -1.029000000     6.352000000    -2.438000000
H    -1.176000000     5.462000000    -2.117000000
H    -0.775000000     6.237000000    -3.354000000
