158
-3026.51473
C    -1.356000000     0.532000000     0.320000000
H    -2.404000000     0.585000000     0.606000000
C    -1.036000000    -0.516000000    -0.595000000
H    -1.761000000    -1.130000000    -1.122000000
C     0.320000000    -0.880000000    -0.808000000
H     0.623000000    -1.789000000    -1.326000000
C     1.299000000    -0.138000000    -0.211000000
H     2.344000000    -0.390000000    -0.372000000
C     0.926000000     0.920000000     0.658000000
H     1.748000000     1.441000000     1.142000000
C    -0.388000000     1.234000000     0.980000000
C    -0.728000000     2.299000000     1.996000000
O    -1.862000000     2.474000000     2.362000000
O     0.209000000     2.814000000     2.607000000
O     5.554000000     1.094000000    -0.691000000
H     5.246000000     0.302000000    -0.250000000
H     4.860000000     1.736000000    -0.543000000
O    -0.773000000     2.592000000    -2.208000000
H    -0.568000000     3.526000000    -2.270000000
H    -0.822000000     2.420000000    -1.268000000
O     4.236000000    -5.406000000    -0.945000000
H     3.699000000    -5.975000000    -0.394000000
H     4.896000000    -5.051000000    -0.350000000
O    -0.308000000     0.502000000    -4.129000000
H    -0.632000000     1.053000000    -3.416000000
H     0.183000000     1.103000000    -4.690000000
O    -0.348000000     2.769000000     5.292000000
H     0.513000000     3.044000000     5.610000000
H    -0.214000000     2.594000000     4.361000000
O     3.722000000    -0.846000000    -4.130000000
H     4.448000000    -0.416000000    -3.679000000
H     3.865000000    -1.780000000    -3.977000000
O    -3.368000000    -1.026000000    -5.615000000
H    -2.884000000    -0.540000000    -6.282000000
H    -2.690000000    -1.442000000    -5.083000000
O     2.590000000     3.627000000     6.098000000
H     2.681000000     4.502000000     5.720000000
H     2.762000000     3.751000000     7.032000000
O    -4.827000000    -1.220000000    -1.374000000
H    -4.288000000    -1.588000000    -0.673000000
H    -4.555000000    -0.304000000    -1.428000000
O    -2.002000000     4.849000000     4.047000000
H    -2.873000000     4.559000000     4.320000000
H    -1.657000000     4.120000000     3.532000000
O     3.526000000     2.813000000    -0.320000000
H     3.450000000     3.411000000     0.423000000
H     3.039000000     3.242000000    -1.024000000
O     0.533000000    -4.718000000    -4.585000000
H     0.515000000    -5.672000000    -4.662000000
H     0.506000000    -4.554000000    -3.642000000
O    -1.533000000     5.392000000     6.955000000
H    -1.430000000     5.027000000     6.076000000
H    -1.447000000     4.638000000     7.539000000
O    -6.783000000     2.041000000     3.820000000
H    -7.539000000     1.517000000     3.552000000
H    -6.042000000     1.437000000     3.767000000
O    -2.521000000     0.171000000     3.304000000
H    -1.820000000    -0.434000000     3.059000000
H    -2.214000000     1.026000000     3.003000000
O    -3.829000000    -2.515000000     0.784000000
H    -3.232000000    -2.315000000     1.505000000
H    -3.973000000    -3.459000000     0.847000000
O     6.182000000    -3.499000000     0.134000000
H     7.073000000    -3.461000000     0.482000000
H     5.756000000    -2.715000000     0.480000000
O     5.465000000    -0.202000000     3.503000000
H     5.433000000     0.749000000     3.603000000
H     4.622000000    -0.507000000     3.839000000
O    -6.679000000     2.934000000     0.053000000
H    -7.067000000     3.308000000     0.844000000
H    -5.768000000     3.227000000     0.072000000
O     1.984000000     0.860000000     3.896000000
H     2.755000000     1.225000000     4.329000000
H     1.645000000     1.579000000     3.363000000
O     2.587000000    -3.357000000    -6.196000000
H     3.464000000    -3.676000000    -5.981000000
H     2.006000000    -3.842000000    -5.610000000
O     2.733000000    -1.682000000     2.472000000
H     2.037000000    -2.316000000     2.300000000
H     2.406000000    -1.159000000     3.203000000
O     5.806000000    -3.038000000    -2.572000000
H     5.642000000    -3.253000000    -1.654000000
H     6.731000000    -3.246000000    -2.705000000
O    -1.990000000    -5.495000000    -0.903000000
H    -2.462000000    -5.308000000    -1.715000000
H    -1.077000000    -5.289000000    -1.104000000
O     0.169000000     6.940000000     4.795000000
H    -0.280000000     6.178000000     5.161000000
H     0.903000000     7.094000000     5.390000000
O     0.892000000    -4.796000000    -1.898000000
H     1.304000000    -5.650000000    -2.028000000
H     1.328000000    -4.436000000    -1.125000000
O    -3.959000000     3.752000000     0.745000000
H    -3.412000000     4.271000000     0.155000000
H    -3.374000000     3.512000000     1.463000000
O    -1.223000000    -4.278000000     1.479000000
H    -0.797000000    -4.917000000     2.050000000
H    -1.551000000    -4.794000000     0.743000000
O     1.706000000     2.018000000    -5.406000000
H     1.936000000     1.966000000    -4.478000000
H     2.339000000     2.633000000    -5.775000000
O     1.441000000     5.316000000     2.398000000
H     2.378000000     5.121000000     2.388000000
H     1.033000000     4.517000000     2.732000000
O    -1.235000000    -2.243000000    -4.236000000
H    -0.888000000    -1.351000000    -4.205000000
H    -0.478000000    -2.801000000    -4.057000000
O     1.410000000    -3.804000000     0.653000000
H     0.507000000    -4.000000000     0.903000000
H     1.910000000    -4.567000000     0.943000000
O    -5.998000000    -3.117000000    -2.699000000
H    -5.708000000    -2.299000000    -2.294000000
H    -6.840000000    -3.304000000    -2.284000000
O    -4.977000000    -0.094000000     4.351000000
H    -4.658000000    -0.253000000     5.239000000
H    -4.183000000     0.009000000     3.826000000
O     6.443000000    -0.143000000    -2.909000000
H     6.200000000    -1.052000000    -2.732000000
H     6.171000000     0.335000000    -2.126000000
O     1.954000000     2.197000000    -2.809000000
H     1.083000000     1.802000000    -2.780000000
H     2.344000000     1.981000000    -1.962000000
O     1.308000000     0.026000000     6.469000000
H     1.284000000     0.388000000     5.583000000
H     0.463000000    -0.412000000     6.572000000
O    -0.454000000    -1.767000000     2.425000000
H    -0.824000000    -2.588000000     2.100000000
H    -0.162000000    -1.308000000     1.638000000
O     1.936000000    -0.528000000    -6.479000000
H     1.839000000     0.025000000    -5.704000000
H     2.292000000    -1.350000000    -6.144000000
O    -4.647000000     4.408000000     4.503000000
H    -4.434000000     3.510000000     4.756000000
H    -4.929000000     4.339000000     3.590000000
O     5.029000000    -3.853000000    -5.286000000
H     5.911000000    -4.210000000    -5.181000000
H     4.804000000    -3.512000000    -4.420000000
O     2.913000000    -5.968000000     1.421000000
H     3.565000000    -6.008000000     2.121000000
H     2.602000000    -6.869000000     1.331000000
O     4.089000000     4.712000000     2.049000000
H     4.664000000     5.349000000     1.623000000
H     4.681000000     4.154000000     2.553000000
O     5.013000000    -1.071000000     1.016000000
H     5.495000000    -0.690000000     1.750000000
H     4.137000000    -1.236000000     1.364000000
O    -1.072000000     7.155000000     1.608000000
H    -0.517000000     6.377000000     1.571000000
H    -1.029000000     7.437000000     2.522000000
O    -3.398000000     1.447000000    -3.360000000
H    -2.759000000     2.009000000    -2.921000000
H    -3.026000000     1.296000000    -4.229000000
O    -3.063000000    -4.142000000    -3.193000000
H    -3.798000000    -3.650000000    -2.827000000
H    -2.499000000    -3.474000000    -3.584000000
O    -2.616000000    -5.408000000    -5.504000000
H    -1.692000000    -5.273000000    -5.716000000
H    -2.664000000    -5.289000000    -4.555000000
