158
-3014.63710
C    -0.671000000     0.531000000     1.307000000
H    -0.875000000     0.902000000     2.308000000
C    -0.579000000    -0.846000000     0.931000000
H    -0.988000000    -1.591000000     1.610000000
C    -0.010000000    -1.184000000    -0.294000000
H    -0.048000000    -2.212000000    -0.727000000
C     0.570000000    -0.203000000    -1.101000000
H     1.093000000    -0.451000000    -2.021000000
C     0.490000000     1.088000000    -0.757000000
H     0.972000000     1.745000000    -1.476000000
C    -0.103000000     1.495000000     0.419000000
C    -0.100000000     2.965000000     0.690000000
O    -0.478000000     3.361000000     1.801000000
O     0.338000000     3.771000000    -0.072000000
O     3.550000000    -1.716000000     0.872000000
H     4.491000000    -1.817000000     0.730000000
H     3.150000000    -2.050000000     0.069000000
O    -2.972000000    -3.692000000    -3.408000000
H    -2.055000000    -3.422000000    -3.357000000
H    -3.268000000    -3.710000000    -2.498000000
O    -1.457000000    -5.230000000    -5.440000000
H    -0.983000000    -4.768000000    -4.748000000
H    -1.573000000    -4.575000000    -6.128000000
O    -0.327000000    -4.604000000     3.918000000
H    -0.052000000    -4.391000000     3.026000000
H    -0.138000000    -5.538000000     4.011000000
O    -2.988000000     5.000000000     4.058000000
H    -2.145000000     4.551000000     4.117000000
H    -2.825000000     5.740000000     3.473000000
O    -0.069000000     3.480000000    -3.110000000
H     0.061000000     3.297000000    -2.179000000
H    -1.006000000     3.662000000    -3.190000000
O    -0.715000000    -6.489000000    -2.241000000
H     0.136000000    -6.928000000    -2.234000000
H    -1.305000000    -7.117000000    -2.656000000
O     3.601000000     3.434000000    -2.225000000
H     3.435000000     3.276000000    -3.154000000
H     3.771000000     2.566000000    -1.861000000
O     2.034000000     5.048000000     3.451000000
H     1.261000000     5.439000000     3.859000000
H     2.616000000     5.789000000     3.282000000
O    -3.433000000    -3.719000000    -0.376000000
H    -4.387000000    -3.649000000    -0.360000000
H    -3.147000000    -3.272000000     0.421000000
O    -4.394000000     1.249000000     5.091000000
H    -3.536000000     0.824000000     5.091000000
H    -4.963000000     0.638000000     5.560000000
O     3.235000000    -5.998000000    -2.754000000
H     2.546000000    -6.653000000    -2.863000000
H     3.650000000    -5.941000000    -3.614000000
O    -5.321000000    -2.200000000     1.204000000
H    -5.252000000    -2.401000000     2.137000000
H    -5.495000000    -1.259000000     1.174000000
O     1.949000000    -2.353000000    -5.127000000
H     2.036000000    -1.423000000    -4.916000000
H     2.806000000    -2.601000000    -5.473000000
O    -0.671000000     3.379000000     4.408000000
H    -0.643000000     3.286000000     3.456000000
H     0.139000000     2.971000000     4.713000000
O    -4.654000000    -2.220000000     3.857000000
H    -5.393000000    -2.280000000     4.462000000
H    -3.882000000    -2.351000000     4.407000000
O    -2.246000000    -7.254000000     1.560000000
H    -2.284000000    -6.304000000     1.455000000
H    -3.163000000    -7.528000000     1.598000000
O     0.037000000    -0.707000000     4.283000000
H     0.519000000     0.118000000     4.343000000
H     0.573000000    -1.258000000     3.713000000
O     1.465000000     1.945000000     5.447000000
H     1.811000000     2.579000000     6.074000000
H     1.111000000     1.240000000     5.989000000
O     3.534000000     2.338000000    -4.897000000
H     2.939000000     2.533000000    -5.621000000
H     4.403000000     2.323000000    -5.298000000
O     0.876000000    -4.607000000     1.537000000
H     0.095000000    -4.523000000     0.989000000
H     0.910000000    -5.537000000     1.762000000
O     2.118000000    -7.230000000     0.190000000
H     2.211000000    -7.331000000     1.137000000
H     3.012000000    -7.099000000    -0.126000000
O     2.856000000    -2.139000000     5.237000000
H     2.337000000    -2.235000000     4.439000000
H     3.452000000    -1.413000000     5.049000000
O     2.510000000    -3.974000000    -0.845000000
H     2.758000000    -4.833000000    -1.187000000
H     1.886000000    -4.166000000    -0.145000000
O    -3.212000000    -4.601000000     3.567000000
H    -3.469000000    -3.719000000     3.299000000
H    -2.275000000    -4.533000000     3.748000000
O    -3.057000000     3.435000000     1.452000000
H    -3.090000000     3.991000000     0.674000000
H    -2.140000000     3.461000000     1.726000000
O    -0.243000000     8.766000000    -0.048000000
H    -0.345000000     7.928000000     0.403000000
H     0.620000000     8.715000000    -0.458000000
O     2.549000000     4.870000000     0.185000000
H     2.933000000     4.481000000    -0.600000000
H     1.726000000     4.397000000     0.309000000
O    -0.211000000     1.357000000    -4.654000000
H     0.641000000     0.941000000    -4.520000000
H    -0.225000000     2.081000000    -4.028000000
O     2.212000000     7.494000000     1.512000000
H     2.809000000     7.293000000     2.233000000
H     1.906000000     6.639000000     1.209000000
O    -1.127000000    -4.925000000    -0.175000000
H    -0.904000000    -5.498000000    -0.908000000
H    -1.931000000    -4.484000000    -0.451000000
O     0.425000000    -0.002000000     7.217000000
H     0.457000000    -0.468000000     6.381000000
H     0.426000000    -0.694000000     7.878000000
O     3.496000000     0.451000000    -1.497000000
H     4.125000000    -0.271000000    -1.479000000
H     2.758000000     0.138000000    -0.973000000
O    -1.782000000    -0.435000000    -2.908000000
H    -1.204000000     0.070000000    -3.479000000
H    -1.273000000    -0.568000000    -2.108000000
O    -0.577000000     6.338000000     1.086000000
H    -1.294000000     6.491000000     0.471000000
H    -0.413000000     5.397000000     1.033000000
O     1.746000000    -2.203000000     2.784000000
H     2.461000000    -1.915000000     2.216000000
H     1.441000000    -3.020000000     2.390000000
O    -2.365000000     2.890000000     6.534000000
H    -3.140000000     2.602000000     6.051000000
H    -1.658000000     2.866000000     5.889000000
O     2.176000000     0.273000000    -4.146000000
H     2.279000000     0.087000000    -3.213000000
H     2.722000000     1.044000000    -4.299000000
O    -2.500000000    -1.564000000     5.265000000
H    -1.705000000    -1.159000000     4.917000000
H    -2.542000000    -1.264000000     6.173000000
O     2.271000000     8.346000000    -1.242000000
H     3.202000000     8.454000000    -1.440000000
H     2.252000000     7.749000000    -0.495000000
O     4.126000000    -2.151000000    -2.032000000
H     3.499000000    -2.749000000    -1.624000000
H     4.781000000    -2.725000000    -2.429000000
O    -2.636000000     4.008000000    -3.104000000
H    -3.436000000     4.315000000    -2.677000000
H    -2.412000000     4.705000000    -3.721000000
O    -3.408000000     1.122000000    -0.831000000
H    -2.944000000     1.019000000    -1.661000000
H    -2.801000000     1.613000000    -0.276000000
O     3.304000000     2.568000000     3.363000000
H     2.673000000     3.267000000     3.192000000
H     2.916000000     2.065000000     4.079000000
O    -2.652000000    -1.418000000    -5.252000000
H    -3.101000000    -1.969000000    -4.611000000
H    -2.451000000    -0.612000000    -4.777000000
O    -0.295000000    -3.555000000    -3.782000000
H     0.252000000    -2.995000000    -4.332000000
H     0.328000000    -4.059000000    -3.259000000
O    -5.602000000     3.366000000     1.840000000
H    -5.712000000     3.330000000     2.790000000
H    -4.663000000     3.506000000     1.712000000
O    -0.104000000     6.900000000     3.768000000
H    -0.163000000     7.842000000     3.612000000
H    -0.253000000     6.504000000     2.909000000
