158
-3013.88035
C     0.818000000    -1.206000000    -0.052000000
H     1.489000000    -2.044000000     0.120000000
C     0.357000000    -0.646000000     1.116000000
H     0.557000000    -1.120000000     2.073000000
C    -0.439000000     0.515000000     1.045000000
H    -0.825000000     0.976000000     1.933000000
C    -0.727000000     1.090000000    -0.209000000
H    -1.324000000     1.994000000    -0.298000000
C    -0.302000000     0.457000000    -1.335000000
H    -0.666000000     0.890000000    -2.263000000
C     0.425000000    -0.734000000    -1.293000000
C     0.869000000    -1.359000000    -2.645000000
O     0.753000000    -0.724000000    -3.668000000
O     1.451000000    -2.401000000    -2.709000000
O     2.951000000     1.321000000    -2.965000000
H     3.173000000     1.001000000    -3.840000000
H     1.999000000     1.234000000    -2.912000000
O    -4.489000000     0.157000000     4.397000000
H    -4.397000000     0.806000000     3.700000000
H    -5.056000000    -0.517000000     4.023000000
O    -1.437000000     5.728000000     4.109000000
H    -1.499000000     6.193000000     3.275000000
H    -1.049000000     6.364000000     4.710000000
O    -2.064000000    -5.739000000     2.314000000
H    -1.221000000    -5.312000000     2.161000000
H    -2.403000000    -5.921000000     1.437000000
O    -2.185000000     1.960000000     5.353000000
H    -1.796000000     2.165000000     4.503000000
H    -2.832000000     1.281000000     5.163000000
O     1.268000000    -0.658000000    -7.807000000
H     1.090000000    -1.591000000    -7.919000000
H     1.625000000    -0.586000000    -6.921000000
O     2.605000000    -5.558000000    -4.624000000
H     2.138000000    -5.945000000    -3.883000000
H     3.517000000    -5.819000000    -4.496000000
O    -1.019000000     3.189000000     3.132000000
H    -1.057000000     3.990000000     3.653000000
H    -1.247000000     3.469000000     2.245000000
O     2.878000000     4.708000000     1.346000000
H     3.751000000     4.738000000     0.955000000
H     3.025000000     4.889000000     2.275000000
O    -0.720000000    -4.014000000    -2.591000000
H    -0.816000000    -4.522000000    -3.397000000
H     0.110000000    -3.549000000    -2.698000000
O     3.400000000    -0.308000000     6.541000000
H     3.391000000     0.167000000     5.710000000
H     2.865000000     0.225000000     7.128000000
O     4.678000000    -3.853000000    -2.572000000
H     4.850000000    -2.972000000    -2.240000000
H     3.777000000    -4.037000000    -2.307000000
O    -1.430000000    -1.491000000    -5.378000000
H    -0.599000000    -1.643000000    -4.928000000
H    -1.250000000    -0.765000000    -5.975000000
O     0.485000000    -6.465000000     0.179000000
H    -0.162000000    -6.633000000    -0.506000000
H     0.373000000    -5.538000000     0.393000000
O     4.054000000    -1.014000000    -2.105000000
H     4.010000000    -0.078000000    -2.298000000
H     3.146000000    -1.312000000    -2.161000000
O    -4.443000000     1.477000000    -2.125000000
H    -4.281000000     0.738000000    -1.538000000
H    -3.881000000     2.176000000    -1.789000000
O     0.919000000    -5.693000000    -6.778000000
H     0.714000000    -4.768000000    -6.643000000
H     1.441000000    -5.936000000    -6.013000000
O    -1.608000000     4.704000000     0.751000000
H    -1.789000000     5.640000000     0.840000000
H    -0.876000000     4.659000000     0.135000000
O     3.841000000     1.594000000     0.985000000
H     2.940000000     1.656000000     1.303000000
H     3.886000000     2.226000000     0.268000000
O     3.002000000     4.425000000    -3.569000000
H     2.103000000     4.460000000    -3.895000000
H     3.041000000     3.614000000    -3.061000000
O    -0.977000000     4.835000000    -2.533000000
H    -1.508000000     5.575000000    -2.238000000
H    -0.424000000     4.622000000    -1.782000000
O    -4.217000000     2.900000000    -4.695000000
H    -3.996000000     2.134000000    -4.166000000
H    -3.865000000     3.641000000    -4.202000000
O    -6.149000000    -0.971000000     0.680000000
H    -5.439000000    -0.467000000     0.282000000
H    -6.911000000    -0.788000000     0.131000000
O    -2.214000000    -2.491000000     6.527000000
H    -1.345000000    -2.274000000     6.866000000
H    -2.125000000    -2.418000000     5.577000000
O    -2.043000000    -3.614000000    -7.552000000
H    -1.284000000    -3.418000000    -8.101000000
H    -1.975000000    -3.000000000    -6.821000000
O     1.603000000     2.618000000     2.361000000
H     0.745000000     2.790000000     2.749000000
H     1.863000000     3.454000000     1.974000000
O     1.017000000     5.024000000    -0.633000000
H     1.644000000     4.784000000     0.050000000
H     1.492000000     5.644000000    -1.186000000
O    -1.602000000    -3.113000000    -0.340000000
H    -2.551000000    -3.224000000    -0.400000000
H    -1.278000000    -3.344000000    -1.211000000
O     0.223000000     1.520000000    -4.650000000
H    -0.473000000     1.376000000    -5.292000000
H     0.276000000     0.696000000    -4.166000000
O     0.359000000     4.190000000    -4.862000000
H    -0.215000000     4.493000000    -4.158000000
H     0.367000000     3.237000000    -4.772000000
O    -3.470000000    -3.466000000    -4.230000000
H    -2.706000000    -3.977000000    -4.501000000
H    -3.200000000    -2.555000000    -4.343000000
O     3.546000000     1.210000000     4.155000000
H     3.771000000     1.676000000     3.350000000
H     2.593000000     1.135000000     4.130000000
O    -2.129000000    -2.372000000     3.691000000
H    -2.984000000    -2.213000000     4.091000000
H    -2.320000000    -2.510000000     2.763000000
O     2.413000000    -4.322000000    -1.102000000
H     2.040000000    -5.102000000    -1.514000000
H     2.086000000    -3.593000000    -1.629000000
O    -1.549000000    -5.045000000    -5.050000000
H    -1.664000000    -4.900000000    -5.989000000
H    -1.107000000    -5.892000000    -4.991000000
O     6.531000000    -1.369000000    -0.447000000
H     5.688000000    -1.217000000    -0.873000000
H     6.595000000    -0.678000000     0.212000000
O     4.030000000    -3.193000000     4.019000000
H     3.154000000    -3.459000000     4.297000000
H     3.879000000    -2.463000000     3.419000000
O    -3.611000000     0.220000000     0.131000000
H    -2.666000000     0.209000000    -0.021000000
H    -3.700000000     0.266000000     1.082000000
O    -3.799000000     4.179000000     3.893000000
H    -3.887000000     5.027000000     3.458000000
H    -2.920000000     4.194000000     4.272000000
O    -4.333000000     1.949000000     2.313000000
H    -4.480000000     2.454000000     1.513000000
H    -4.235000000     2.610000000     2.998000000
O     3.651000000     0.915000000    -5.768000000
H     3.605000000     1.461000000    -6.553000000
H     4.081000000     0.111000000    -6.060000000
O     2.733000000    -4.621000000     1.658000000
H     2.894000000    -4.374000000     0.747000000
H     1.788000000    -4.525000000     1.769000000
O    -0.199000000    -4.090000000     1.727000000
H    -0.081000000    -3.483000000     2.457000000
H    -0.693000000    -3.591000000     1.077000000
O     1.721000000    -6.921000000    -2.297000000
H     1.826000000    -7.709000000    -2.829000000
H     0.825000000    -6.973000000    -1.965000000
O     1.459000000    -3.015000000    -5.484000000
H     1.635000000    -2.278000000    -4.900000000
H     2.034000000    -3.713000000    -5.169000000
O    -3.594000000     3.595000000    -0.623000000
H    -2.962000000     4.057000000    -0.072000000
H    -4.431000000     4.019000000    -0.434000000
O     4.298000000     3.207000000    -1.560000000
H     3.977000000     2.475000000    -2.086000000
H     5.154000000     3.413000000    -1.934000000
O    -1.625000000     1.112000000    -6.520000000
H    -1.363000000     1.124000000    -7.440000000
H    -2.523000000     1.442000000    -6.522000000
