158
-3041.05956
C    -1.210000000     0.476000000    -0.657000000
H    -2.120000000     0.847000000    -1.121000000
C    -0.670000000    -0.792000000    -0.886000000
H    -1.063000000    -1.403000000    -1.695000000
C     0.536000000    -1.046000000    -0.248000000
H     0.915000000    -1.991000000    -0.249000000
C     1.064000000    -0.227000000     0.707000000
H     1.895000000    -0.592000000     1.306000000
C     0.499000000     0.971000000     0.962000000
H     0.976000000     1.589000000     1.718000000
C    -0.639000000     1.387000000     0.277000000
C    -1.357000000     2.692000000     0.515000000
O    -2.378000000     2.998000000    -0.088000000
O    -0.890000000     3.445000000     1.415000000
O    -1.978000000     0.671000000     4.275000000
H    -2.147000000     0.098000000     3.527000000
H    -1.479000000     1.401000000     3.909000000
O     4.766000000     1.428000000    -1.244000000
H     5.647000000     1.667000000    -0.956000000
H     4.715000000     0.483000000    -1.100000000
O     1.184000000    -7.600000000    -1.501000000
H     1.835000000    -8.292000000    -1.380000000
H     0.341000000    -8.047000000    -1.424000000
O    -0.771000000    -2.536000000    -4.303000000
H    -1.313000000    -3.193000000    -3.867000000
H    -0.865000000    -2.729000000    -5.236000000
O    -3.681000000    -2.485000000    -2.358000000
H    -4.221000000    -2.832000000    -3.069000000
H    -3.452000000    -1.600000000    -2.642000000
O     2.667000000    -4.863000000    -3.156000000
H     1.715000000    -4.807000000    -3.078000000
H     2.875000000    -4.345000000    -3.933000000
O    -4.928000000     1.512000000     2.714000000
H    -4.892000000     1.145000000     1.831000000
H    -4.433000000     2.329000000     2.654000000
O    -6.060000000     0.849000000    -3.556000000
H    -5.235000000     0.471000000    -3.253000000
H    -6.647000000     0.778000000    -2.802000000
O     1.011000000     5.255000000     2.356000000
H     1.059000000     4.851000000     3.222000000
H     0.504000000     4.636000000     1.831000000
O     1.641000000     1.483000000     4.371000000
H     2.138000000     2.297000000     4.453000000
H     0.789000000     1.756000000     4.031000000
O     0.247000000     0.842000000    -3.729000000
H    -0.276000000     1.542000000    -3.338000000
H    -0.177000000     0.035000000    -3.438000000
O     1.545000000     7.783000000     0.280000000
H     1.453000000     6.831000000     0.254000000
H     1.293000000     8.024000000     1.171000000
O     0.920000000     4.580000000    -2.067000000
H     0.897000000     5.524000000    -2.225000000
H     1.821000000     4.405000000    -1.794000000
O    -1.306000000     2.996000000    -2.721000000
H    -1.769000000     2.965000000    -1.884000000
H    -0.416000000     3.265000000    -2.493000000
O     0.214000000    -2.446000000     4.198000000
H    -0.158000000    -2.021000000     3.425000000
H    -0.359000000    -2.178000000     4.917000000
O     2.555000000    -1.035000000     4.036000000
H     1.769000000    -1.573000000     4.133000000
H     2.230000000    -0.135000000     4.018000000
O    -2.430000000    -4.755000000    -2.837000000
H    -3.153000000    -5.224000000    -3.252000000
H    -2.769000000    -3.872000000    -2.692000000
O    -4.031000000     4.311000000     1.870000000
H    -3.553000000     4.773000000     2.558000000
H    -3.365000000     4.095000000     1.218000000
O    -1.581000000    -1.609000000     2.066000000
H    -2.031000000    -2.205000000     1.467000000
H    -1.167000000    -0.963000000     1.494000000
O    -4.475000000     1.559000000    -0.742000000
H    -3.703000000     2.007000000    -0.397000000
H    -4.575000000     0.789000000    -0.182000000
O     3.930000000     5.090000000     1.871000000
H     2.991000000     5.187000000     2.033000000
H     4.324000000     5.091000000     2.744000000
O     0.420000000     6.832000000     4.679000000
H     0.868000000     7.004000000     3.850000000
H    -0.468000000     6.583000000     4.423000000
O     3.750000000    -3.502000000    -0.969000000
H     3.673000000    -4.353000000    -0.538000000
H     3.690000000    -3.700000000    -1.903000000
O     1.339000000    -4.628000000     2.625000000
H     1.977000000    -4.876000000     3.294000000
H     0.843000000    -3.911000000     3.021000000
O    -0.541000000     2.902000000     3.856000000
H    -1.000000000     3.421000000     4.517000000
H    -0.688000000     3.375000000     3.036000000
O     5.493000000    -4.892000000     2.282000000
H     4.691000000    -4.474000000     1.970000000
H     5.193000000    -5.546000000     2.914000000
O    -5.048000000    -0.403000000     0.839000000
H    -5.864000000    -0.904000000     0.832000000
H    -4.373000000    -1.048000000     1.048000000
O     1.925000000    -2.214000000    -4.893000000
H     1.022000000    -1.937000000    -4.740000000
H     2.457000000    -1.500000000    -4.541000000
O     0.239000000    -7.216000000     1.659000000
H    -0.667000000    -7.374000000     1.925000000
H     0.348000000    -6.268000000     1.731000000
O     2.759000000     4.268000000     4.967000000
H     2.578000000     4.490000000     5.880000000
H     3.703000000     4.392000000     4.872000000
O    -6.549000000     4.356000000     1.225000000
H    -7.040000000     3.880000000     1.894000000
H    -5.645000000     4.350000000     1.542000000
O     0.084000000    -5.662000000    -3.056000000
H     0.306000000    -6.290000000    -2.368000000
H    -0.830000000    -5.435000000    -2.888000000
O    -3.411000000     4.036000000    -4.802000000
H    -2.830000000     3.754000000    -4.095000000
H    -4.278000000     4.076000000    -4.398000000
O    -3.589000000     4.864000000    -2.038000000
H    -2.853000000     5.459000000    -2.181000000
H    -3.365000000     4.396000000    -1.234000000
O    -3.532000000    -2.709000000     0.406000000
H    -4.353000000    -3.170000000     0.581000000
H    -3.510000000    -2.612000000    -0.546000000
O     4.701000000     0.396000000     3.135000000
H     4.141000000    -0.356000000     2.941000000
H     4.430000000     1.064000000     2.506000000
O    -2.815000000     0.756000000    -5.750000000
H    -2.315000000     0.817000000    -6.564000000
H    -3.287000000     1.587000000    -5.696000000
O     2.483000000    -5.724000000     0.063000000
H     2.066000000    -5.333000000     0.831000000
H     1.864000000    -6.392000000    -0.231000000
O     6.304000000    -5.153000000    -1.508000000
H     6.552000000    -5.875000000    -0.930000000
H     6.035000000    -4.452000000    -0.913000000
O     3.949000000     2.301000000     1.363000000
H     4.126000000     1.935000000     0.496000000
H     4.261000000     3.205000000     1.310000000
O    -6.480000000     3.215000000    -1.388000000
H    -5.894000000     2.461000000    -1.462000000
H    -6.255000000     3.610000000    -0.545000000
O     6.892000000    -1.026000000    -2.896000000
H     7.314000000    -1.515000000    -2.190000000
H     6.039000000    -0.778000000    -2.539000000
O    -2.476000000     5.150000000     4.633000000
H    -2.941000000     4.799000000     5.393000000
H    -2.463000000     6.096000000     4.776000000
O     3.531000000    -0.230000000    -3.828000000
H     4.174000000     0.403000000    -4.147000000
H     2.881000000     0.300000000    -3.368000000
O    -3.647000000    -0.002000000    -3.311000000
H    -3.313000000     0.789000000    -2.886000000
H    -3.401000000     0.098000000    -4.230000000
O     5.027000000    -1.165000000    -0.659000000
H     5.597000000    -1.350000000     0.088000000
H     4.486000000    -1.950000000    -0.747000000
O    -1.907000000    -7.331000000    -1.805000000
H    -2.227000000    -7.820000000    -1.047000000
H    -2.196000000    -6.432000000    -1.650000000
O     4.725000000    -0.821000000     5.740000000
H     4.907000000     0.114000000     5.829000000
H     4.252000000    -0.895000000     4.911000000
