158
-3025.91176
C    -1.355000000     0.345000000    -0.339000000
H    -2.341000000     0.585000000    -0.731000000
C    -0.752000000    -0.885000000    -0.653000000
H    -1.273000000    -1.554000000    -1.333000000
C     0.512000000    -1.114000000    -0.214000000
H     0.938000000    -2.067000000    -0.452000000
C     1.151000000    -0.168000000     0.591000000
H     2.155000000    -0.350000000     0.966000000
C     0.597000000     1.038000000     0.890000000
H     1.140000000     1.806000000     1.436000000
C    -0.646000000     1.334000000     0.345000000
C    -1.267000000     2.712000000     0.573000000
O    -2.336000000     2.956000000     0.002000000
O    -0.845000000     3.399000000     1.422000000
O    -1.760000000    -0.155000000     4.712000000
H    -1.758000000    -0.747000000     3.960000000
H    -1.241000000     0.597000000     4.426000000
O    -1.191000000    -5.795000000    -1.420000000
H    -1.572000000    -5.722000000    -0.545000000
H    -0.262000000    -5.601000000    -1.293000000
O    -0.203000000    -1.354000000    -4.187000000
H    -0.908000000    -1.958000000    -3.953000000
H    -0.553000000    -0.849000000    -4.921000000
O    -4.881000000     0.247000000    -2.124000000
H    -5.439000000     0.485000000    -2.864000000
H    -4.003000000     0.526000000    -2.387000000
O     2.624000000    -5.118000000    -5.484000000
H     1.926000000    -5.592000000    -5.032000000
H     2.484000000    -4.201000000    -5.247000000
O    -4.096000000     2.375000000     2.461000000
H    -4.708000000     2.104000000     1.777000000
H    -3.354000000     2.747000000     1.985000000
O    -6.619000000     3.311000000    -3.131000000
H    -6.194000000     3.259000000    -2.275000000
H    -7.338000000     3.929000000    -3.004000000
O    -4.670000000    -1.419000000    -5.199000000
H    -3.962000000    -1.527000000    -4.564000000
H    -5.047000000    -0.564000000    -4.994000000
O     0.626000000     6.642000000    -0.543000000
H     0.861000000     5.904000000     0.019000000
H    -0.320000000     6.559000000    -0.664000000
O     2.999000000     3.435000000     3.391000000
H     3.613000000     3.592000000     2.674000000
H     2.577000000     4.282000000     3.536000000
O     1.197000000     1.067000000    -2.444000000
H     0.528000000     0.491000000    -2.814000000
H     1.038000000     1.043000000    -1.501000000
O    -0.667000000     3.066000000    -3.496000000
H    -0.857000000     3.722000000    -2.824000000
H     0.175000000     2.694000000    -3.235000000
O     1.241000000    -1.138000000     3.409000000
H     0.521000000    -1.390000000     2.831000000
H     0.948000000    -1.394000000     4.283000000
O     3.947000000    -0.135000000     3.216000000
H     4.098000000     0.107000000     2.302000000
H     2.998000000    -0.237000000     3.284000000
O    -2.042000000    -3.400000000    -3.481000000
H    -2.115000000    -4.192000000    -4.014000000
H    -2.079000000    -3.715000000    -2.578000000
O    -2.552000000     5.099000000     2.527000000
H    -2.145000000     4.824000000     3.349000000
H    -2.132000000     4.556000000     1.860000000
O    -1.402000000    -1.189000000     2.417000000
H    -1.914000000    -1.754000000     1.838000000
H    -0.982000000    -0.562000000     1.829000000
O    -5.213000000     3.341000000    -0.724000000
H    -4.294000000     3.493000000    -0.503000000
H    -5.440000000     2.534000000    -0.262000000
O     3.915000000     3.586000000    -0.420000000
H     3.148000000     3.695000000     0.142000000
H     3.674000000     4.018000000    -1.240000000
O    -4.299000000    -2.476000000     1.295000000
H    -4.600000000    -2.794000000     0.443000000
H    -4.896000000    -1.760000000     1.508000000
O     1.555000000     4.496000000     0.955000000
H     1.691000000     5.099000000     1.686000000
H     0.692000000     4.114000000     1.117000000
O     3.451000000    -2.770000000     0.202000000
H     2.892000000    -3.064000000     0.921000000
H     4.119000000    -2.229000000     0.623000000
O     1.681000000    -4.838000000     1.518000000
H     1.859000000    -4.612000000     2.431000000
H     0.729000000    -4.923000000     1.474000000
O    -0.664000000     2.531000000     3.914000000
H    -1.050000000     3.313000000     4.310000000
H    -0.548000000     2.762000000     2.992000000
O    -5.661000000     1.046000000     0.412000000
H    -6.041000000     0.331000000     0.922000000
H    -5.377000000     0.633000000    -0.404000000
O     2.279000000    -2.200000000    -5.387000000
H     1.399000000    -2.104000000    -5.024000000
H     2.836000000    -1.681000000    -4.806000000
O    -2.128000000    -4.861000000     1.102000000
H    -2.297000000    -4.637000000     2.017000000
H    -2.964000000    -5.199000000     0.780000000
O    -3.886000000     1.408000000     4.996000000
H    -3.967000000     1.887000000     4.172000000
H    -3.044000000     0.958000000     4.930000000
O     2.148000000     6.099000000     3.024000000
H     3.047000000     6.344000000     2.807000000
H     1.942000000     6.610000000     3.807000000
O     1.672000000     2.436000000     6.042000000
H     1.829000000     2.404000000     5.098000000
H     2.038000000     1.617000000     6.374000000
O     3.672000000    -6.968000000     1.851000000
H     3.087000000    -7.489000000     2.401000000
H     3.230000000    -6.123000000     1.764000000
O    -5.041000000     6.169000000     1.588000000
H    -5.603000000     5.585000000     2.098000000
H    -4.151000000     5.938000000     1.854000000
O     2.889000000    -4.752000000     4.273000000
H     3.223000000    -5.592000000     4.587000000
H     2.342000000    -4.429000000     4.989000000
O    -1.818000000     8.013000000     2.011000000
H    -1.767000000     7.075000000     1.830000000
H    -2.613000000     8.113000000     2.534000000
O     0.574000000    -6.637000000    -4.490000000
H    -0.041000000    -5.963000000    -4.202000000
H     0.115000000    -7.462000000    -4.335000000
O    -1.726000000     5.240000000    -1.310000000
H    -2.598000000     5.463000000    -1.638000000
H    -1.875000000     4.509000000    -0.711000000
O    -5.282000000    -2.562000000    -1.308000000
H    -5.073000000    -1.855000000    -1.919000000
H    -6.201000000    -2.419000000    -1.082000000
O     5.602000000    -1.869000000     1.402000000
H     5.736000000    -2.432000000     2.165000000
H     6.285000000    -1.203000000     1.473000000
O     6.095000000     1.670000000     2.897000000
H     6.375000000     0.755000000     2.930000000
H     5.554000000     1.726000000     2.109000000
O     1.822000000    -4.827000000    -1.317000000
H     1.942000000    -4.731000000    -0.372000000
H     2.380000000    -4.149000000    -1.699000000
O     5.037000000     1.135000000     0.374000000
H     5.652000000     0.952000000    -0.336000000
H     4.688000000     2.003000000     0.170000000
O     3.288000000    -7.322000000    -2.411000000
H     2.519000000    -6.826000000    -2.690000000
H     2.949000000    -7.955000000    -1.778000000
O    -6.463000000     6.009000000    -0.867000000
H    -6.160000000     5.106000000    -0.962000000
H    -6.108000000     6.294000000    -0.025000000
O    -1.132000000     5.049000000     4.901000000
H    -1.369000000     5.249000000     5.806000000
H    -0.190000000     5.215000000     4.858000000
O     5.512000000    -2.050000000    -3.229000000
H     5.985000000    -2.452000000    -2.500000000
H     4.594000000    -2.069000000    -2.957000000
O    -2.805000000     1.342000000    -4.036000000
H    -2.046000000     1.848000000    -3.746000000
H    -2.523000000     0.936000000    -4.855000000
O     2.944000000    -1.804000000    -2.450000000
H     2.157000000    -1.269000000    -2.351000000
H     3.075000000    -2.198000000    -1.587000000
O     5.101000000    -1.616000000     5.224000000
H     5.394000000    -0.783000000     5.595000000
H     4.756000000    -1.386000000     4.362000000
