158
-3004.85481
C    -1.213000000     0.470000000    -0.657000000
H    -1.990000000     0.899000000    -1.285000000
C    -0.242000000    -0.258000000    -1.295000000
H    -0.270000000    -0.356000000    -2.377000000
C     0.841000000    -0.723000000    -0.541000000
H     1.611000000    -1.341000000    -1.042000000
C     0.852000000    -0.561000000     0.806000000
H     1.707000000    -0.932000000     1.367000000
C    -0.141000000     0.215000000     1.427000000
H    -0.213000000     0.194000000     2.511000000
C    -1.150000000     0.796000000     0.705000000
C    -2.203000000     1.729000000     1.331000000
O    -2.971000000     2.307000000     0.570000000
O    -2.188000000     2.007000000     2.498000000
O    -5.753000000     1.233000000     6.343000000
H    -5.240000000     1.207000000     7.151000000
H    -5.099000000     1.283000000     5.646000000
O     3.785000000    -3.763000000    -3.972000000
H     3.977000000    -4.238000000    -3.163000000
H     4.643000000    -3.501000000    -4.305000000
O    -1.131000000     1.366000000    -5.603000000
H    -0.250000000     1.738000000    -5.557000000
H    -1.582000000     1.720000000    -4.836000000
O     1.739000000    -0.691000000    -4.840000000
H     1.112000000    -1.398000000    -4.687000000
H     2.322000000    -0.719000000    -4.081000000
O    -5.854000000     3.678000000     0.836000000
H    -5.004000000     3.514000000     1.244000000
H    -5.844000000     3.146000000     0.040000000
O     0.451000000     3.075000000     3.059000000
H     0.380000000     3.221000000     2.116000000
H    -0.307000000     2.532000000     3.275000000
O     1.475000000     2.407000000    -5.497000000
H     2.050000000     1.982000000    -6.134000000
H     1.392000000     1.769000000    -4.788000000
O    -1.750000000     1.730000000     6.227000000
H    -1.467000000     2.645000000     6.230000000
H    -0.954000000     1.233000000     6.413000000
O     0.446000000     3.308000000     0.098000000
H     0.767000000     3.692000000    -0.718000000
H     0.062000000     2.472000000    -0.166000000
O    -5.687000000    -1.213000000    -0.374000000
H    -5.425000000    -1.308000000    -1.290000000
H    -6.486000000    -1.736000000    -0.298000000
O     1.221000000     4.117000000    -2.435000000
H     1.936000000     3.484000000    -2.362000000
H     1.646000000     4.926000000    -2.719000000
O    -1.720000000     2.438000000    -3.144000000
H    -2.164000000     3.248000000    -2.890000000
H    -0.974000000     2.377000000    -2.548000000
O    -3.116000000    -1.485000000     5.955000000
H    -3.622000000    -0.799000000     5.521000000
H    -2.237000000    -1.115000000     6.042000000
O     3.045000000     1.886000000     3.637000000
H     3.614000000     1.987000000     4.400000000
H     2.159000000     2.008000000     3.980000000
O     1.128000000    -3.182000000    -4.265000000
H     2.065000000    -3.376000000    -4.280000000
H     0.705000000    -4.027000000    -4.420000000
O    -3.456000000     4.143000000     3.301000000
H    -3.678000000     3.791000000     4.163000000
H    -2.923000000     3.461000000     2.893000000
O    -5.364000000    -0.682000000     2.510000000
H    -5.084000000    -1.443000000     3.019000000
H    -5.155000000    -0.910000000     1.604000000
O    -5.364000000     2.055000000    -1.046000000
H    -5.739000000     1.186000000    -0.901000000
H    -4.546000000     2.049000000    -0.550000000
O     1.553000000     5.543000000     2.779000000
H     1.032000000     6.167000000     3.286000000
H     1.031000000     4.741000000     2.777000000
O     5.430000000     1.260000000    -4.177000000
H     5.931000000     1.660000000    -3.467000000
H     5.316000000     0.349000000    -3.906000000
O     3.058000000    -3.529000000     1.130000000
H     3.446000000    -2.923000000     0.498000000
H     2.129000000    -3.554000000     0.899000000
O     4.363000000     4.329000000    -0.954000000
H     4.178000000     3.401000000    -1.095000000
H     5.302000000     4.414000000    -1.115000000
O    -0.380000000    -3.836000000     3.436000000
H     0.036000000    -3.069000000     3.829000000
H     0.344000000    -4.439000000     3.263000000
O    -3.982000000     1.006000000     4.230000000
H    -4.287000000     0.319000000     3.637000000
H    -3.348000000     1.504000000     3.713000000
O     6.319000000    -3.427000000     1.966000000
H     6.533000000    -2.724000000     1.353000000
H     5.797000000    -4.043000000     1.451000000
O    -7.059000000     1.993000000     2.825000000
H    -6.518000000     2.331000000     2.111000000
H    -6.602000000     1.206000000     3.120000000
O     0.331000000    -3.702000000     0.282000000
H     0.019000000    -3.670000000     1.186000000
H    -0.381000000    -3.320000000    -0.231000000
O     6.062000000    -0.675000000     3.787000000
H     5.764000000    -0.875000000     2.900000000
H     6.979000000    -0.949000000     3.799000000
O     6.695000000    -1.099000000     0.680000000
H     6.923000000    -0.962000000    -0.240000000
H     7.358000000    -0.608000000     1.166000000
O     1.297000000     3.158000000     5.591000000
H     0.748000000     3.674000000     6.182000000
H     0.997000000     3.398000000     4.714000000
O     4.422000000    -6.045000000     0.719000000
H     4.261000000    -6.056000000    -0.224000000
H     3.700000000    -5.531000000     1.080000000
O     0.489000000    -1.820000000     5.120000000
H     0.586000000    -2.327000000     5.926000000
H     0.675000000    -0.918000000     5.382000000
O    -2.850000000    -3.507000000    -3.979000000
H    -2.488000000    -2.708000000    -4.362000000
H    -2.446000000    -3.562000000    -3.113000000
O    -3.443000000     5.366000000    -3.614000000
H    -4.400000000     5.380000000    -3.639000000
H    -3.231000000     5.079000000    -2.726000000
O    -2.845000000     4.229000000    -1.192000000
H    -2.508000000     4.917000000    -0.619000000
H    -2.853000000     3.444000000    -0.645000000
O    -2.436000000    -3.368000000    -1.240000000
H    -2.984000000    -4.030000000    -0.819000000
H    -2.884000000    -2.540000000    -1.064000000
O     3.180000000     2.243000000    -2.860000000
H     3.631000000     1.875000000    -3.620000000
H     3.248000000     1.563000000    -2.189000000
O    -2.668000000    -1.009000000    -5.602000000
H    -2.730000000    -0.669000000    -6.494000000
H    -2.320000000    -0.277000000    -5.091000000
O     6.207000000    -2.530000000    -3.055000000
H     6.958000000    -2.240000000    -3.572000000
H     6.542000000    -2.592000000    -2.160000000
O    -2.944000000     6.926000000     3.381000000
H    -2.973000000     5.988000000     3.573000000
H    -2.044000000     7.083000000     3.094000000
O    -6.631000000     5.986000000     0.052000000
H    -6.343000000     5.114000000     0.320000000
H    -5.854000000     6.536000000     0.152000000
O     4.484000000    -0.154000000    -0.775000000
H     4.187000000     0.532000000    -0.178000000
H     5.148000000    -0.633000000    -0.279000000
O     3.482000000    -1.025000000    -2.967000000
H     3.954000000    -0.751000000    -2.181000000
H     3.866000000    -1.872000000    -3.195000000
O    -4.504000000    -0.792000000    -2.881000000
H    -4.570000000     0.107000000    -3.201000000
H    -4.225000000    -1.298000000    -3.643000000
O     2.989000000     1.901000000     1.026000000
H     2.298000000     2.561000000     1.092000000
H     3.274000000     1.762000000     1.929000000
O     0.834000000     0.594000000     6.458000000
H     0.889000000     1.525000000     6.244000000
H     1.485000000     0.468000000     7.148000000
O    -6.166000000     3.881000000    -3.020000000
H    -7.026000000     3.471000000    -2.924000000
H    -5.546000000     3.204000000    -2.747000000
O     3.561000000    -4.075000000     3.839000000
H     2.703000000    -4.492000000     3.921000000
H     3.572000000    -3.723000000     2.949000000
