158
-3055.07663
C     0.339000000    -0.388000000     1.325000000
H     0.678000000    -0.847000000     2.250000000
C    -0.037000000    -1.242000000     0.293000000
H    -0.144000000    -2.322000000     0.368000000
C    -0.321000000    -0.704000000    -0.938000000
H    -0.488000000    -1.419000000    -1.771000000
C    -0.221000000     0.643000000    -1.170000000
H    -0.402000000     1.027000000    -2.171000000
C     0.113000000     1.523000000    -0.126000000
H     0.205000000     2.566000000    -0.418000000
C     0.419000000     0.989000000     1.149000000
C     0.833000000     1.892000000     2.261000000
O     1.040000000     1.422000000     3.376000000
O     0.892000000     3.083000000     2.165000000
O     2.427000000     3.058000000     4.836000000
H     2.493000000     3.821000000     4.261000000
H     1.839000000     2.461000000     4.375000000
O     1.293000000    -5.485000000    -4.758000000
H     2.239000000    -5.447000000    -4.896000000
H     1.105000000    -6.416000000    -4.640000000
O     0.505000000    -0.352000000    -5.060000000
H     0.658000000    -1.221000000    -5.431000000
H     1.250000000    -0.206000000    -4.477000000
O    -3.499000000    -5.917000000    -3.611000000
H    -3.988000000    -6.513000000    -3.043000000
H    -4.054000000    -5.814000000    -4.384000000
O    -5.862000000    -0.044000000    -0.618000000
H    -4.939000000     0.066000000    -0.846000000
H    -5.897000000    -0.881000000    -0.156000000
O     4.093000000    -4.205000000    -2.200000000
H     3.964000000    -4.465000000    -3.112000000
H     3.441000000    -3.521000000    -2.052000000
O     1.289000000    -2.821000000    -6.198000000
H     0.916000000    -3.634000000    -5.858000000
H     2.225000000    -2.890000000    -6.013000000
O    -1.666000000    -5.773000000    -0.773000000
H    -2.212000000    -5.681000000     0.008000000
H    -0.770000000    -5.793000000    -0.437000000
O    -5.266000000    -0.560000000    -5.550000000
H    -4.318000000    -0.677000000    -5.611000000
H    -5.433000000    -0.435000000    -4.616000000
O     2.444000000     3.907000000     0.201000000
H     1.938000000     4.665000000    -0.091000000
H     2.004000000     3.620000000     1.001000000
O    -3.660000000    -3.136000000     1.645000000
H    -3.951000000    -3.330000000     2.536000000
H    -2.711000000    -3.038000000     1.719000000
O     1.922000000    -2.682000000    -2.811000000
H     0.967000000    -2.682000000    -2.867000000
H     2.174000000    -1.780000000    -3.007000000
O    -2.495000000    -0.433000000    -5.191000000
H    -1.542000000    -0.516000000    -5.184000000
H    -2.659000000     0.472000000    -4.926000000
O    -3.074000000     0.265000000     0.514000000
H    -3.422000000     0.303000000    -0.377000000
H    -2.198000000    -0.107000000     0.413000000
O     2.823000000     0.337000000    -2.999000000
H     2.925000000     1.198000000    -3.406000000
H     3.271000000     0.416000000    -2.157000000
O     3.144000000     6.642000000     2.950000000
H     2.302000000     6.614000000     3.404000000
H     3.734000000     7.077000000     3.565000000
O    -1.872000000     2.804000000    -6.221000000
H    -0.988000000     2.447000000    -6.300000000
H    -1.803000000     3.693000000    -6.570000000
O    -3.085000000    -2.341000000    -3.084000000
H    -2.346000000    -2.869000000    -2.782000000
H    -2.819000000    -2.030000000    -3.950000000
O    -0.703000000    -4.016000000    -3.582000000
H    -1.244000000    -4.780000000    -3.385000000
H     0.122000000    -4.382000000    -3.902000000
O     3.387000000    -0.147000000     0.221000000
H     2.467000000    -0.265000000    -0.017000000
H     3.368000000     0.055000000     1.156000000
O    -1.034000000     1.270000000     5.278000000
H    -0.342000000     1.312000000     4.617000000
H    -1.200000000     0.334000000     5.392000000
O     2.769000000     2.803000000    -5.131000000
H     1.947000000     2.905000000    -4.653000000
H     2.524000000     2.345000000    -5.935000000
O     0.664000000    -1.115000000     6.317000000
H    -0.178000000    -1.137000000     5.861000000
H     1.225000000    -1.704000000     5.813000000
O     0.534000000     5.817000000    -0.301000000
H     0.049000000     5.432000000     0.428000000
H    -0.098000000     6.392000000    -0.732000000
O     3.844000000    -3.129000000     2.599000000
H     4.168000000    -3.333000000     1.722000000
H     3.556000000    -2.218000000     2.543000000
O    -3.404000000     3.475000000    -0.173000000
H    -2.696000000     2.904000000    -0.473000000
H    -3.605000000     3.163000000     0.709000000
O     4.564000000     0.034000000     5.441000000
H     4.971000000    -0.326000000     6.229000000
H     4.827000000     0.954000000     5.434000000
O     4.985000000     2.735000000     5.798000000
H     5.762000000     3.168000000     5.443000000
H     4.289000000     2.942000000     5.175000000
O    -1.193000000     4.462000000     1.288000000
H    -0.582000000     3.831000000     1.668000000
H    -2.032000000     4.264000000     1.704000000
O    -2.651000000     2.102000000    -3.759000000
H    -2.475000000     2.603000000    -2.962000000
H    -2.278000000     2.633000000    -4.463000000
O     2.518000000    -3.089000000     5.005000000
H     2.821000000    -3.191000000     4.103000000
H     2.488000000    -3.982000000     5.350000000
O    -0.719000000    -3.583000000     2.636000000
H    -1.135000000    -4.444000000     2.590000000
H     0.171000000    -3.730000000     2.317000000
O     0.733000000     3.443000000    -3.354000000
H    -0.120000000     3.556000000    -2.934000000
H     1.367000000     3.623000000    -2.661000000
O    -1.154000000    -1.537000000     4.453000000
H    -1.764000000    -1.057000000     3.891000000
H    -0.842000000    -2.258000000     3.907000000
O     0.834000000     5.197000000     3.963000000
H     0.850000000     4.612000000     3.205000000
H     0.124000000     4.861000000     4.510000000
O    -1.703000000     4.359000000    -2.222000000
H    -2.193000000     4.419000000    -1.402000000
H    -1.683000000     5.256000000    -2.555000000
O    -0.809000000     4.071000000     5.698000000
H    -1.022000000     4.150000000     6.628000000
H    -1.040000000     3.170000000     5.475000000
O     3.779000000     3.165000000    -2.064000000
H     3.268000000     3.242000000    -1.258000000
H     4.102000000     4.050000000    -2.229000000
O     1.529000000    -4.513000000     1.299000000
H     2.317000000    -4.022000000     1.064000000
H     1.819000000    -5.425000000     1.342000000
O     1.846000000     1.723000000     7.334000000
H     2.025000000     2.172000000     6.508000000
H     1.658000000     0.819000000     7.080000000
O    -4.617000000    -3.936000000    -1.768000000
H    -4.103000000    -3.303000000    -2.271000000
H    -4.290000000    -4.790000000    -2.053000000
O     4.527000000     5.632000000     0.888000000
H     4.123000000     4.771000000     0.786000000
H     3.971000000     6.084000000     1.522000000
O     3.153000000    -0.383000000     3.030000000
H     3.756000000    -0.173000000     3.743000000
H     2.285000000    -0.189000000     3.385000000
O    -3.692000000     3.720000000     2.693000000
H    -4.594000000     4.037000000     2.754000000
H    -3.449000000     3.518000000     3.596000000
O     5.814000000    -0.990000000     0.305000000
H     6.024000000    -1.031000000     1.238000000
H     4.920000000    -0.648000000     0.276000000
O    -3.488000000     0.033000000    -1.992000000
H    -3.658000000    -0.808000000    -2.416000000
H    -3.188000000     0.602000000    -2.701000000
O     0.462000000     6.055000000    -4.755000000
H     0.709000000     5.381000000    -4.121000000
H     0.761000000     6.874000000    -4.362000000
O    -3.155000000     0.271000000     3.299000000
H    -3.035000000     1.186000000     3.550000000
H    -3.338000000     0.301000000     2.360000000
