158
-3063.87633
C    -0.422000000    -0.507000000     1.309000000
H    -0.738000000    -1.036000000     2.204000000
C    -0.480000000    -1.175000000     0.043000000
H    -0.791000000    -2.216000000    -0.013000000
C    -0.246000000    -0.504000000    -1.168000000
H    -0.379000000    -1.011000000    -2.086000000
C     0.296000000     0.788000000    -1.070000000
H     0.750000000     1.211000000    -1.963000000
C     0.449000000     1.397000000     0.258000000
H     1.083000000     2.279000000     0.287000000
C     0.057000000     0.745000000     1.429000000
C     0.324000000     1.394000000     2.753000000
O     0.228000000     0.740000000     3.768000000
O     0.497000000     2.588000000     2.837000000
O     1.444000000     0.225000000     6.051000000
H     1.156000000    -0.671000000     6.226000000
H     0.980000000     0.474000000     5.252000000
O    -2.378000000     5.209000000     5.278000000
H    -1.541000000     5.661000000     5.173000000
H    -2.171000000     4.439000000     5.806000000
O     3.805000000    -5.717000000    -2.093000000
H     4.652000000    -5.509000000    -2.488000000
H     3.473000000    -4.875000000    -1.783000000
O    -4.372000000    -3.287000000    -5.241000000
H    -3.748000000    -3.637000000    -5.877000000
H    -4.620000000    -4.044000000    -4.709000000
O    -0.658000000    -4.367000000    -2.228000000
H    -0.100000000    -3.656000000    -2.543000000
H    -0.059000000    -4.959000000    -1.773000000
O     1.401000000    -2.306000000    -7.399000000
H     1.973000000    -2.471000000    -8.148000000
H     1.911000000    -2.591000000    -6.641000000
O     3.134000000     1.892000000     4.000000000
H     2.201000000     1.865000000     3.786000000
H     3.228000000     1.289000000     4.738000000
O    -3.963000000    -6.146000000     0.033000000
H    -3.485000000    -6.880000000     0.419000000
H    -3.742000000    -5.398000000     0.588000000
O    -1.784000000    -4.552000000    -5.661000000
H    -1.658000000    -5.278000000    -5.051000000
H    -1.340000000    -3.812000000    -5.248000000
O    -3.423000000    -0.353000000    -0.459000000
H    -3.647000000    -0.547000000    -1.370000000
H    -2.504000000    -0.608000000    -0.380000000
O     5.535000000     3.159000000     3.340000000
H     4.658000000     2.850000000     3.568000000
H     5.682000000     3.908000000     3.917000000
O    -0.636000000    -2.308000000    -4.779000000
H    -1.205000000    -1.548000000    -4.657000000
H     0.251000000    -1.959000000    -4.695000000
O     2.104000000     5.491000000     3.935000000
H     1.901000000     4.576000000     3.737000000
H     2.280000000     5.887000000     3.082000000
O    -2.792000000     0.552000000    -5.379000000
H    -3.551000000     0.375000000    -5.935000000
H    -2.199000000     1.056000000    -5.936000000
O     2.023000000     2.615000000     7.837000000
H     1.587000000     1.909000000     7.359000000
H     1.376000000     3.320000000     7.864000000
O    -0.793000000    -6.994000000    -3.967000000
H    -0.341000000    -6.309000000    -3.475000000
H    -0.186000000    -7.223000000    -4.671000000
O     2.642000000    -1.452000000     0.856000000
H     1.771000000    -1.194000000     0.556000000
H     3.131000000    -0.630000000     0.909000000
O    -2.548000000     0.758000000     3.859000000
H    -1.629000000     0.490000000     3.855000000
H    -2.669000000     1.185000000     4.707000000
O     0.561000000    -0.182000000    -5.934000000
H    -0.195000000     0.274000000    -6.305000000
H     0.864000000    -0.755000000    -6.638000000
O     0.274000000    -2.274000000     6.598000000
H    -0.328000000    -2.227000000     5.855000000
H     0.801000000    -3.055000000     6.430000000
O    -0.459000000     5.869000000    -0.764000000
H    -0.732000000     5.426000000     0.039000000
H    -0.984000000     5.462000000    -1.453000000
O    -2.537000000     2.584000000    -0.561000000
H    -1.989000000     1.850000000    -0.282000000
H    -3.114000000     2.749000000     0.185000000
O     4.450000000    -0.197000000     6.626000000
H     4.585000000     0.690000000     6.959000000
H     3.521000000    -0.228000000     6.397000000
O    -0.844000000     4.610000000     1.746000000
H    -1.693000000     4.315000000     2.075000000
H    -0.207000000     4.048000000     2.186000000
O     3.971000000     3.696000000    -3.835000000
H     3.936000000     3.920000000    -2.905000000
H     3.088000000     3.874000000    -4.158000000
O    -3.957000000    -3.999000000     1.779000000
H    -4.285000000    -3.102000000     1.835000000
H    -4.525000000    -4.499000000     2.365000000
O     4.825000000     0.935000000    -3.097000000
H     3.969000000     1.108000000    -3.488000000
H     5.449000000     1.344000000    -3.698000000
O     0.846000000     3.547000000    -4.182000000
H     1.271000000     3.846000000    -3.378000000
H    -0.079000000     3.469000000    -3.948000000
O    -1.796000000    -2.803000000     4.399000000
H    -1.691000000    -3.458000000     3.709000000
H    -2.526000000    -2.260000000     4.105000000
O    -0.128000000     3.367000000     5.497000000
H    -0.695000000     2.669000000     5.824000000
H     0.032000000     3.136000000     4.582000000
O    -1.394000000     3.866000000    -2.791000000
H    -1.574000000     3.554000000    -1.904000000
H    -2.254000000     3.903000000    -3.210000000
O    -2.103000000     1.698000000     6.641000000
H    -3.028000000     1.550000000     6.838000000
H    -1.639000000     1.367000000     7.410000000
O     4.627000000     2.105000000    -0.766000000
H     5.553000000     2.343000000    -0.724000000
H     4.520000000     1.711000000    -1.631000000
O     1.179000000    -5.989000000     1.822000000
H     1.478000000    -5.113000000     1.581000000
H     0.694000000    -6.296000000     1.056000000
O    -3.414000000    -5.198000000    -2.582000000
H    -3.554000000    -5.620000000    -1.734000000
H    -2.644000000    -4.644000000    -2.449000000
O     2.342000000     1.218000000    -4.258000000
H     1.768000000     0.557000000    -4.647000000
H     1.810000000     2.013000000    -4.235000000
O     1.822000000     4.494000000    -1.648000000
H     1.000000000     4.877000000    -1.341000000
H     2.053000000     3.853000000    -0.976000000
O     3.274000000    -3.958000000     1.643000000
H     4.144000000    -3.787000000     1.283000000
H     2.811000000    -3.125000000     1.555000000
O     1.936000000    -2.973000000    -2.611000000
H     2.593000000    -2.536000000    -2.069000000
H     2.319000000    -2.982000000    -3.489000000
O    -3.210000000     3.064000000     2.273000000
H    -3.753000000     3.201000000     3.050000000
H    -2.729000000     2.258000000     2.457000000
O     3.087000000    -2.671000000    -5.295000000
H     3.573000000    -1.924000000    -5.642000000
H     3.598000000    -3.435000000    -5.563000000
O    -0.300000000     6.537000000     4.131000000
H    -0.582000000     6.237000000     3.267000000
H     0.597000000     6.213000000     4.216000000
O     4.948000000    -1.726000000    -2.003000000
H     5.609000000    -1.117000000    -1.672000000
H     4.380000000    -1.186000000    -2.552000000
O     4.020000000     0.999000000     1.555000000
H     3.847000000     1.646000000     0.871000000
H     3.949000000     1.490000000     2.373000000
O    -3.480000000    -1.078000000    -3.230000000
H    -3.563000000    -1.914000000    -3.690000000
H    -3.180000000    -0.465000000    -3.901000000
O     1.007000000    -6.446000000    -1.739000000
H     1.124000000    -7.388000000    -1.866000000
H     1.888000000    -6.082000000    -1.825000000
O    -3.572000000    -1.101000000     2.158000000
H    -3.112000000    -0.476000000     2.718000000
H    -3.535000000    -0.713000000     1.284000000
O     2.962000000     4.342000000     1.097000000
H     3.843000000     4.000000000     0.946000000
H     3.096000000     5.264000000     1.314000000
