158
-3056.03698
C     0.820000000     0.254000000     1.177000000
H     1.481000000     0.316000000     2.037000000
C     0.904000000    -0.876000000     0.410000000
H     1.509000000    -1.742000000     0.669000000
C     0.135000000    -0.985000000    -0.739000000
H     0.198000000    -1.824000000    -1.274000000
C    -0.601000000     0.146000000    -1.111000000
H    -1.150000000     0.010000000    -2.039000000
C    -0.761000000     1.197000000    -0.291000000
H    -1.585000000     1.876000000    -0.492000000
C    -0.051000000     1.323000000     0.915000000
C    -0.183000000     2.539000000     1.794000000
O     0.437000000     2.576000000     2.851000000
O    -0.894000000     3.439000000     1.468000000
O     4.288000000     2.591000000     5.024000000
H     4.474000000     2.061000000     5.800000000
H     3.332000000     2.630000000     4.985000000
O    -4.399000000    -6.357000000    -1.241000000
H    -3.700000000    -5.805000000    -1.593000000
H    -5.116000000    -5.749000000    -1.060000000
O     4.037000000    -2.165000000    -5.577000000
H     4.830000000    -1.790000000    -5.194000000
H     3.550000000    -2.511000000    -4.829000000
O    -2.401000000    -3.482000000    -4.287000000
H    -2.373000000    -3.682000000    -3.351000000
H    -1.564000000    -3.799000000    -4.625000000
O    -3.202000000     3.345000000     2.821000000
H    -3.920000000     3.193000000     2.207000000
H    -2.454000000     3.565000000     2.266000000
O     4.634000000    -0.915000000    -0.629000000
H     4.206000000    -0.225000000    -1.136000000
H     4.627000000    -0.590000000     0.271000000
O    -0.274000000    -2.373000000    -7.020000000
H     0.024000000    -2.523000000    -6.123000000
H    -0.523000000    -3.241000000    -7.337000000
O    -2.763000000    -3.733000000    -1.578000000
H    -2.791000000    -3.355000000    -0.699000000
H    -2.148000000    -4.463000000    -1.505000000
O     1.532000000     5.142000000     1.766000000
H     2.280000000     4.547000000     1.726000000
H     0.791000000     4.580000000     1.994000000
O     2.327000000    -1.091000000     5.482000000
H     2.392000000    -0.766000000     6.380000000
H     1.935000000    -0.369000000     4.992000000
O     1.734000000    -4.938000000     0.071000000
H     1.388000000    -5.130000000    -0.800000000
H     2.507000000    -5.496000000     0.151000000
O     4.260000000    -4.225000000     3.034000000
H     4.448000000    -4.362000000     2.106000000
H     4.925000000    -4.739000000     3.492000000
O    -4.894000000     2.740000000     0.863000000
H    -5.307000000     1.935000000     1.177000000
H    -5.619000000     3.265000000     0.523000000
O    -0.500000000    -5.594000000     2.258000000
H     0.227000000    -5.205000000     2.744000000
H    -0.613000000    -6.460000000     2.649000000
O     1.703000000    -3.661000000     2.486000000
H     2.608000000    -3.877000000     2.712000000
H     1.622000000    -3.903000000     1.564000000
O    -0.018000000    -0.346000000    -4.412000000
H     0.145000000     0.529000000    -4.060000000
H    -0.775000000    -0.235000000    -4.988000000
O     3.407000000     3.201000000     2.220000000
H     3.758000000     3.240000000     3.110000000
H     3.291000000     2.266000000     2.049000000
O     1.862000000    -4.705000000    -2.817000000
H     1.873000000    -3.749000000    -2.854000000
H     2.780000000    -4.951000000    -2.702000000
O    -0.146000000    -4.773000000    -4.812000000
H     0.351000000    -4.944000000    -5.612000000
H     0.508000000    -4.801000000    -4.113000000
O     2.578000000     0.322000000    -1.750000000
H     2.321000000     1.100000000    -2.245000000
H     1.869000000     0.194000000    -1.120000000
O     0.408000000     1.063000000     5.017000000
H     0.376000000     1.657000000     4.267000000
H    -0.506000000     0.829000000     5.177000000
O     1.642000000     7.380000000     0.319000000
H     1.317000000     6.708000000     0.918000000
H     1.289000000     8.200000000     0.665000000
O     0.152000000    -2.345000000     4.343000000
H     0.584000000    -2.781000000     3.609000000
H     0.828000000    -1.782000000     4.721000000
O    -1.099000000     6.368000000    -1.252000000
H    -1.119000000     6.456000000    -0.299000000
H    -1.542000000     7.153000000    -1.575000000
O    -1.125000000     6.311000000     1.472000000
H    -1.075000000     5.356000000     1.417000000
H    -0.860000000     6.513000000     2.369000000
O     2.164000000    -1.969000000    -3.415000000
H     2.629000000    -1.365000000    -2.837000000
H     1.397000000    -1.477000000    -3.709000000
O    -5.405000000    -0.045000000     1.584000000
H    -5.357000000     0.307000000     2.473000000
H    -4.503000000    -0.287000000     1.373000000
O    -2.370000000    -1.003000000     1.385000000
H    -2.476000000    -1.954000000     1.399000000
H    -1.442000000    -0.868000000     1.192000000
O     1.477000000     4.638000000    -1.111000000
H     0.776000000     5.223000000    -1.401000000
H     1.891000000     5.102000000    -0.384000000
O     1.546000000     3.649000000     5.096000000
H     1.357000000     3.252000000     4.246000000
H     0.685000000     3.812000000     5.481000000
O    -0.637000000     4.424000000     6.451000000
H    -1.077000000     3.915000000     7.132000000
H    -1.347000000     4.745000000     5.895000000
O    -4.659000000     2.998000000     5.045000000
H    -4.462000000     2.170000000     5.483000000
H    -4.042000000     3.036000000     4.315000000
O     1.363000000     2.525000000    -3.152000000
H     1.522000000     2.963000000    -3.988000000
H     1.612000000     3.171000000    -2.491000000
O    -3.814000000    -1.915000000    -6.103000000
H    -3.098000000    -2.080000000    -5.490000000
H    -4.472000000    -2.575000000    -5.886000000
O    -2.141000000     3.426000000    -5.005000000
H    -1.617000000     3.632000000    -4.231000000
H    -1.938000000     2.510000000    -5.194000000
O     4.687000000    -1.543000000     3.892000000
H     4.112000000    -1.513000000     4.657000000
H     4.882000000    -2.473000000     3.776000000
O     2.088000000     1.184000000     7.519000000
H     3.022000000     1.299000000     7.340000000
H     1.650000000     1.686000000     6.831000000
O     4.306000000     0.367000000     1.782000000
H     4.274000000    -0.257000000     2.507000000
H     5.241000000     0.519000000     1.638000000
O    -2.659000000     5.161000000     4.934000000
H    -3.422000000     5.687000000     4.694000000
H    -2.728000000     4.377000000     4.389000000
O    -3.775000000     2.011000000    -1.730000000
H    -4.027000000     2.541000000    -0.974000000
H    -2.994000000     2.443000000    -2.076000000
O    -1.108000000     3.575000000    -2.298000000
H    -0.281000000     3.111000000    -2.167000000
H    -1.029000000     4.361000000    -1.758000000
O    -3.971000000     5.895000000     1.074000000
H    -3.159000000     5.627000000     0.644000000
H    -4.642000000     5.328000000     0.695000000
O    -4.855000000     0.471000000    -3.906000000
H    -5.189000000    -0.327000000    -3.497000000
H    -4.573000000     1.017000000    -3.172000000
O    -1.423000000    -6.093000000    -1.247000000
H    -0.828000000    -6.226000000    -0.509000000
H    -1.545000000    -6.967000000    -1.618000000
O    -2.272000000    -3.792000000     1.260000000
H    -3.004000000    -4.303000000     1.605000000
H    -1.492000000    -4.260000000     1.558000000
O    -5.311000000    -1.924000000    -2.159000000
H    -5.439000000    -2.571000000    -2.853000000
H    -4.428000000    -2.094000000    -1.833000000
O     3.001000000     5.932000000     4.317000000
H     2.305000000     5.763000000     3.681000000
H     2.784000000     5.374000000     5.064000000
O    -3.139000000     0.438000000     3.374000000
H    -2.841000000     1.273000000     3.015000000
H    -2.861000000    -0.213000000     2.730000000
