158
-3030.88812
C     1.325000000    -0.526000000    -0.199000000
H     2.347000000    -0.897000000    -0.181000000
C     0.914000000     0.185000000     0.937000000
H     1.563000000     0.395000000     1.783000000
C    -0.452000000     0.548000000     1.003000000
H    -0.864000000     0.993000000     1.933000000
C    -1.286000000     0.206000000    -0.037000000
H    -2.336000000     0.436000000     0.120000000
C    -0.766000000    -0.257000000    -1.161000000
H    -1.413000000    -0.420000000    -2.018000000
C     0.539000000    -0.790000000    -1.241000000
C     1.104000000    -1.297000000    -2.513000000
O     0.517000000    -1.047000000    -3.542000000
O     2.157000000    -1.895000000    -2.497000000
O     1.888000000     2.754000000    -3.028000000
H     1.151000000     2.481000000    -3.574000000
H     1.526000000     2.801000000    -2.144000000
O     6.875000000     1.211000000    -0.091000000
H     7.574000000     1.832000000    -0.298000000
H     6.100000000     1.573000000    -0.521000000
O    -4.366000000    -0.928000000    -1.871000000
H    -3.751000000    -1.592000000    -2.182000000
H    -4.350000000    -0.251000000    -2.547000000
O    -2.838000000    -0.267000000     5.541000000
H    -3.154000000     0.571000000     5.201000000
H    -2.984000000    -0.886000000     4.825000000
O    -1.060000000     5.799000000     3.233000000
H    -0.619000000     5.793000000     2.383000000
H    -1.369000000     6.699000000     3.336000000
O     1.658000000     1.171000000     4.296000000
H     1.190000000     1.998000000     4.178000000
H     0.974000000     0.502000000     4.261000000
O     1.169000000    -1.659000000    -7.602000000
H     1.800000000    -2.024000000    -8.222000000
H     1.480000000    -1.949000000    -6.744000000
O     0.380000000     3.625000000     4.108000000
H     0.787000000     4.103000000     4.830000000
H    -0.325000000     4.199000000     3.808000000
O     3.834000000     2.601000000     1.408000000
H     4.219000000     2.263000000     0.599000000
H     4.022000000     3.539000000     1.389000000
O     1.372000000    -6.200000000    -1.636000000
H     0.448000000    -6.182000000    -1.885000000
H     1.428000000    -6.891000000    -0.976000000
O     4.566000000    -0.637000000    -2.261000000
H     4.597000000    -0.195000000    -3.109000000
H     3.835000000    -1.249000000    -2.336000000
O    -1.228000000    -2.579000000    -4.758000000
H    -0.742000000    -1.975000000    -4.196000000
H    -1.642000000    -2.016000000    -5.413000000
O    -6.210000000     1.325000000     2.751000000
H    -6.195000000     2.245000000     3.016000000
H    -6.817000000     1.298000000     2.011000000
O     1.485000000     4.168000000     1.271000000
H     2.154000000     3.485000000     1.328000000
H     1.205000000     4.305000000     2.175000000
O     3.205000000    -0.311000000    -4.780000000
H     2.631000000    -0.788000000    -4.181000000
H     2.923000000     0.601000000    -4.706000000
O    -6.097000000     2.230000000    -1.776000000
H    -6.936000000     2.314000000    -1.323000000
H    -5.449000000     2.536000000    -1.141000000
O     4.235000000    -3.279000000    -5.937000000
H     4.775000000    -3.079000000    -5.172000000
H     3.341000000    -3.310000000    -5.597000000
O    -2.943000000     3.943000000     2.431000000
H    -2.569000000     4.549000000     3.071000000
H    -2.507000000     4.165000000     1.608000000
O     4.388000000     1.678000000    -1.054000000
H     4.282000000     0.729000000    -1.125000000
H     3.705000000     2.038000000    -1.619000000
O    -2.719000000     2.257000000    -1.872000000
H    -2.439000000     3.171000000    -1.930000000
H    -3.272000000     2.225000000    -1.091000000
O    -5.482000000    -1.210000000     0.817000000
H    -5.880000000    -0.355000000     0.983000000
H    -5.139000000    -1.145000000    -0.074000000
O     0.895000000     0.898000000    -7.525000000
H     0.980000000    -0.053000000    -7.590000000
H     0.048000000     1.090000000    -7.926000000
O     4.099000000     0.585000000     3.227000000
H     3.971000000     1.372000000     2.698000000
H     3.285000000     0.496000000     3.724000000
O     0.085000000     2.915000000    -1.040000000
H    -0.258000000     2.057000000    -0.794000000
H     0.211000000     3.371000000    -0.208000000
O    -0.532000000    -4.566000000     0.123000000
H    -0.970000000    -3.806000000     0.506000000
H     0.369000000    -4.278000000    -0.017000000
O     0.332000000     1.349000000    -4.927000000
H     0.786000000     1.392000000    -5.768000000
H     0.342000000     0.421000000    -4.696000000
O    -1.546000000     4.704000000    -2.484000000
H    -0.834000000     4.479000000    -1.884000000
H    -1.513000000     5.658000000    -2.547000000
O    -1.693000000     5.410000000     0.451000000
H    -2.585000000     5.542000000     0.129000000
H    -1.287000000     6.275000000     0.391000000
O    -2.506000000     1.101000000    -4.289000000
H    -2.429000000     1.644000000    -3.504000000
H    -1.612000000     1.038000000    -4.625000000
O    -2.608000000    -3.374000000    -2.253000000
H    -2.014000000    -2.973000000    -1.619000000
H    -2.144000000    -3.312000000    -3.088000000
O     5.662000000    -0.964000000     1.172000000
H     6.034000000    -0.224000000     0.692000000
H     5.084000000    -0.563000000     1.822000000
O    -0.233000000    -1.017000000     4.997000000
H     0.116000000    -1.313000000     5.838000000
H    -1.154000000    -0.826000000     5.175000000
O     1.438000000     3.561000000     7.473000000
H     1.205000000     2.725000000     7.068000000
H     2.395000000     3.566000000     7.478000000
O     2.459000000    -3.856000000    -0.734000000
H     2.280000000    -4.693000000    -1.160000000
H     2.253000000    -3.199000000    -1.399000000
O     7.396000000    -0.508000000    -2.514000000
H     6.637000000    -0.871000000    -2.971000000
H     7.031000000    -0.112000000    -1.722000000
O     5.540000000    -3.417000000    -3.029000000
H     5.040000000    -2.845000000    -2.447000000
H     5.988000000    -4.025000000    -2.442000000
O    -2.576000000    -2.578000000     0.767000000
H    -2.858000000    -1.799000000     0.288000000
H    -2.895000000    -2.440000000     1.658000000
O    -2.724000000    -4.785000000    -5.683000000
H    -1.910000000    -5.208000000    -5.959000000
H    -2.471000000    -3.881000000    -5.493000000
O     4.833000000    -3.813000000     3.269000000
H     4.989000000    -2.870000000     3.335000000
H     4.049000000    -3.888000000     2.725000000
O    -3.760000000     2.068000000     4.287000000
H    -3.319000000     2.617000000     3.639000000
H    -4.550000000     1.759000000     3.843000000
O     2.510000000    -3.986000000     2.090000000
H     2.464000000    -4.048000000     1.136000000
H     1.635000000    -3.702000000     2.354000000
O     0.315000000    -3.044000000     3.350000000
H    -0.158000000    -2.275000000     3.669000000
H     0.209000000    -3.695000000     4.044000000
O     1.804000000    -3.798000000    -5.137000000
H     1.602000000    -3.373000000    -4.303000000
H     0.949000000    -3.968000000    -5.532000000
O    -4.499000000     3.466000000     0.067000000
H    -4.161000000     3.561000000     0.957000000
H    -5.124000000     4.185000000    -0.030000000
O     5.631000000    -3.609000000     0.216000000
H     4.714000000    -3.649000000    -0.055000000
H     5.745000000    -2.718000000     0.547000000
O     3.694000000     1.733000000     6.259000000
H     4.141000000     2.560000000     6.082000000
H     2.984000000     1.702000000     5.617000000
O    -4.155000000    -2.562000000     3.854000000
H    -3.965000000    -3.500000000     3.868000000
H    -5.062000000    -2.497000000     4.153000000
O    -4.819000000    -0.037000000    -4.997000000
H    -5.435000000     0.695000000    -4.967000000
H    -3.959000000     0.369000000    -4.888000000
