158
-2996.82218
C    -1.325000000     0.098000000     0.471000000
H    -2.390000000    -0.008000000     0.664000000
C    -0.756000000    -1.018000000    -0.133000000
H    -1.363000000    -1.872000000    -0.425000000
C     0.595000000    -0.931000000    -0.546000000
H     0.923000000    -1.705000000    -1.200000000
C     1.311000000     0.258000000    -0.281000000
H     2.333000000     0.304000000    -0.649000000
C     0.766000000     1.277000000     0.370000000
H     1.350000000     2.185000000     0.497000000
C    -0.583000000     1.226000000     0.808000000
C    -1.260000000     2.294000000     1.560000000
O    -2.293000000     2.086000000     2.211000000
O    -0.820000000     3.409000000     1.510000000
O    -2.636000000     0.386000000     4.977000000
H    -2.427000000    -0.546000000     4.918000000
H    -2.750000000     0.664000000     4.068000000
O     0.828000000    -4.221000000     2.214000000
H     0.255000000    -4.318000000     1.453000000
H     1.439000000    -3.528000000     1.967000000
O     1.386000000    -3.992000000    -2.641000000
H     0.788000000    -4.365000000    -3.288000000
H     1.884000000    -3.333000000    -3.125000000
O    -1.219000000    -6.830000000    -1.114000000
H    -0.601000000    -7.330000000    -1.647000000
H    -2.080000000    -7.140000000    -1.393000000
O    -3.898000000    -2.159000000    -3.579000000
H    -3.194000000    -2.764000000    -3.344000000
H    -4.566000000    -2.714000000    -3.982000000
O    -6.345000000     4.287000000     4.117000000
H    -5.941000000     3.510000000     4.502000000
H    -6.760000000     4.733000000     4.856000000
O    -2.286000000    -3.827000000     3.000000000
H    -3.163000000    -3.915000000     3.374000000
H    -2.436000000    -3.725000000     2.060000000
O    -2.145000000    -4.236000000    -2.963000000
H    -1.604000000    -4.669000000    -3.623000000
H    -1.619000000    -4.269000000    -2.164000000
O     0.270000000     4.466000000     3.930000000
H    -0.106000000     4.241000000     3.079000000
H     0.556000000     3.628000000     4.294000000
O    -1.991000000    -1.617000000    -7.248000000
H    -1.453000000    -1.550000000    -6.459000000
H    -2.603000000    -0.884000000    -7.184000000
O    -4.727000000    -1.199000000     0.856000000
H    -4.649000000    -0.258000000     0.700000000
H    -5.309000000    -1.509000000     0.162000000
O    -0.646000000     1.028000000    -3.329000000
H    -1.369000000     1.653000000    -3.372000000
H    -0.263000000     1.165000000    -2.463000000
O     0.830000000     6.765000000    -0.060000000
H     1.250000000     6.026000000     0.380000000
H     1.480000000     7.467000000    -0.020000000
O     3.436000000     2.642000000     1.734000000
H     4.233000000     2.826000000     2.230000000
H     3.746000000     2.436000000     0.852000000
O    -2.308000000     3.517000000    -2.453000000
H    -2.980000000     3.868000000    -3.038000000
H    -2.056000000     4.261000000    -1.905000000
O    -0.114000000    -5.211000000    -4.591000000
H     0.050000000    -4.744000000    -5.410000000
H    -0.847000000    -5.794000000    -4.790000000
O    -3.409000000     6.750000000     3.212000000
H    -3.191000000     5.820000000     3.156000000
H    -4.365000000     6.771000000     3.254000000
O     0.122000000    -0.666000000     3.129000000
H    -0.616000000    -0.679000000     2.520000000
H     0.854000000    -1.025000000     2.627000000
O    -4.959000000     2.347000000     1.758000000
H    -4.009000000     2.231000000     1.753000000
H    -5.087000000     3.284000000     1.614000000
O     5.798000000     1.067000000     0.282000000
H     5.324000000     1.150000000    -0.546000000
H     6.720000000     1.049000000     0.029000000
O     2.851000000     2.431000000    -4.806000000
H     2.373000000     2.805000000    -4.066000000
H     2.825000000     1.486000000    -4.655000000
O    -0.718000000    -2.701000000     4.961000000
H    -0.983000000    -3.351000000     4.312000000
H    -0.497000000    -1.924000000     4.447000000
O    -1.673000000     5.610000000     0.100000000
H    -1.470000000     4.789000000     0.550000000
H    -0.826000000     6.042000000    -0.004000000
O     4.610000000    -2.694000000     1.898000000
H     4.677000000    -3.057000000     2.782000000
H     4.594000000    -3.461000000     1.326000000
O     1.724000000     1.866000000     3.750000000
H     1.379000000     0.996000000     3.549000000
H     2.383000000     2.025000000     3.073000000
O    -3.297000000     4.153000000     3.247000000
H    -3.686000000     3.991000000     4.107000000
H    -2.768000000     3.374000000     3.073000000
O     2.168000000    -2.992000000    -5.412000000
H     1.589000000    -3.138000000    -6.160000000
H     2.903000000    -3.587000000    -5.558000000
O     3.694000000     4.421000000    -2.204000000
H     2.757000000     4.231000000    -2.150000000
H     3.910000000     4.802000000    -1.353000000
O    -0.752000000     2.214000000     5.992000000
H    -1.100000000     3.095000000     6.129000000
H    -1.396000000     1.787000000     5.427000000
O    -4.682000000     5.056000000     0.607000000
H    -4.904000000     5.823000000     0.078000000
H    -3.725000000     5.049000000     0.629000000
O     4.272000000     5.551000000     0.204000000
H     5.121000000     5.348000000     0.596000000
H     3.799000000     6.026000000     0.887000000
O    -4.737000000     2.971000000     5.857000000
H    -5.525000000     3.108000000     6.384000000
H    -4.259000000     2.281000000     6.317000000
O    -0.483000000    -4.377000000    -0.056000000
H     0.071000000    -4.249000000    -0.826000000
H    -0.920000000    -5.214000000    -0.212000000
O    -4.748000000    -5.516000000    -2.037000000
H    -4.473000000    -5.682000000    -1.135000000
H    -3.984000000    -5.115000000    -2.451000000
O     0.957000000     3.896000000    -3.166000000
H     0.036000000     3.683000000    -3.016000000
H     0.956000000     4.400000000    -3.980000000
O     2.921000000     5.445000000     4.112000000
H     2.914000000     5.727000000     5.026000000
H     2.034000000     5.121000000     3.954000000
O     2.239000000    -1.644000000     1.733000000
H     2.053000000    -1.388000000     0.829000000
H     3.042000000    -2.161000000     1.675000000
O     5.344000000    -0.114000000     2.797000000
H     5.562000000     0.264000000     1.945000000
H     5.236000000    -1.049000000     2.623000000
O     3.130000000    -5.348000000    -0.735000000
H     2.648000000    -4.866000000    -1.407000000
H     2.785000000    -6.239000000    -0.784000000
O    -0.146000000    -1.433000000    -4.974000000
H    -0.089000000    -0.662000000    -4.410000000
H     0.525000000    -2.027000000    -4.637000000
O     5.024000000     0.707000000    -2.273000000
H     5.563000000     0.061000000    -2.730000000
H     5.305000000     1.550000000    -2.629000000
O     2.676000000    -0.224000000    -3.917000000
H     3.222000000     0.081000000    -3.192000000
H     3.252000000    -0.794000000    -4.427000000
O     0.474000000     7.164000000     4.517000000
H     0.506000000     7.747000000     3.758000000
H     0.199000000     6.320000000     4.160000000
O     5.413000000    -4.975000000     0.665000000
H     5.361000000    -5.591000000     1.395000000
H     4.619000000    -5.139000000     0.156000000
O     1.688000000     4.591000000     1.146000000
H     2.385000000     3.992000000     1.412000000
H     0.880000000     4.100000000     1.294000000
O    -3.471000000     0.388000000    -3.920000000
H    -3.609000000    -0.543000000    -3.747000000
H    -2.527000000     0.512000000    -3.821000000
O     0.581000000     1.043000000    -6.139000000
H     0.861000000     0.127000000    -6.130000000
H     0.842000000     1.382000000    -5.283000000
O    -6.196000000    -0.077000000     2.905000000
H    -5.873000000     0.760000000     2.571000000
H    -5.698000000    -0.736000000     2.421000000
