158
-3033.89196
C     0.378000000    -0.342000000     1.435000000
H     0.670000000    -0.716000000     2.413000000
C     0.362000000    -1.225000000     0.357000000
H     0.445000000    -2.304000000     0.458000000
C     0.063000000    -0.799000000    -0.919000000
H     0.132000000    -1.491000000    -1.730000000
C    -0.390000000     0.523000000    -1.094000000
H    -0.578000000     0.777000000    -2.134000000
C    -0.365000000     1.408000000    -0.092000000
H    -0.641000000     2.442000000    -0.280000000
C     0.026000000     0.999000000     1.214000000
C     0.149000000     2.032000000     2.265000000
O     0.217000000     1.780000000     3.423000000
O     0.153000000     3.240000000     2.015000000
O    -2.347000000     1.666000000     7.299000000
H    -3.288000000     1.709000000     7.468000000
H    -2.048000000     2.571000000     7.379000000
O    -3.713000000     4.743000000    -1.172000000
H    -2.925000000     4.715000000    -0.629000000
H    -4.265000000     5.406000000    -0.758000000
O     5.234000000    -2.424000000    -0.488000000
H     5.522000000    -3.336000000    -0.511000000
H     4.567000000    -2.400000000     0.197000000
O    -4.019000000    -1.600000000    -4.695000000
H    -4.745000000    -1.854000000    -5.263000000
H    -4.326000000    -1.798000000    -3.810000000
O    -1.549000000     3.806000000     4.151000000
H    -2.254000000     3.226000000     3.864000000
H    -0.800000000     3.559000000     3.609000000
O     2.496000000     2.996000000     4.719000000
H     1.690000000     2.850000000     4.224000000
H     3.145000000     3.233000000     4.056000000
O     0.454000000    -5.863000000    -5.044000000
H     1.377000000    -6.082000000    -4.920000000
H     0.466000000    -5.007000000    -5.473000000
O     5.141000000    -0.070000000    -2.154000000
H     5.633000000    -0.791000000    -1.761000000
H     4.461000000     0.134000000    -1.511000000
O     1.497000000     5.293000000     2.907000000
H     0.975000000     5.862000000     3.472000000
H     0.901000000     4.584000000     2.666000000
O     0.872000000     2.800000000     7.227000000
H     0.552000000     2.041000000     6.741000000
H     1.333000000     3.326000000     6.573000000
O    -4.148000000    -1.701000000     4.239000000
H    -3.348000000    -1.344000000     4.627000000
H    -4.804000000    -1.017000000     4.373000000
O    -1.268000000    -2.280000000    -4.436000000
H    -2.038000000    -1.712000000    -4.392000000
H    -0.525000000    -1.683000000    -4.342000000
O    -3.639000000     1.764000000    -1.779000000
H    -4.495000000     1.563000000    -2.159000000
H    -3.731000000     2.653000000    -1.438000000
O     2.087000000    -4.706000000     0.144000000
H     2.493000000    -5.299000000    -0.488000000
H     1.417000000    -5.236000000     0.574000000
O     2.519000000    -2.969000000    -2.301000000
H     3.116000000    -2.656000000    -1.622000000
H     1.908000000    -3.542000000    -1.838000000
O    -0.285000000     6.994000000     3.844000000
H    -0.559000000     7.258000000     2.966000000
H    -1.065000000     6.592000000     4.227000000
O     3.433000000     7.057000000     2.319000000
H     2.858000000     6.294000000     2.380000000
H     2.849000000     7.778000000     2.083000000
O     3.400000000    -2.217000000     1.306000000
H     2.745000000    -1.738000000     1.814000000
H     3.240000000    -3.137000000     1.515000000
O     0.750000000     0.557000000     5.620000000
H     1.494000000     0.052000000     5.291000000
H     0.517000000     1.139000000     4.897000000
O     1.923000000    -6.783000000     2.598000000
H     2.790000000    -7.138000000     2.795000000
H     1.870000000    -5.979000000     3.115000000
O     2.522000000     0.957000000    -0.619000000
H     2.625000000     1.215000000    -1.535000000
H     1.710000000     0.451000000    -0.602000000
O    -1.140000000    -6.930000000    -1.156000000
H    -1.388000000    -6.250000000    -0.530000000
H    -0.610000000    -6.473000000    -1.809000000
O    -1.375000000     4.839000000     0.280000000
H    -0.572000000     4.748000000    -0.233000000
H    -1.184000000     4.391000000     1.104000000
O     2.976000000    -0.697000000     4.289000000
H     3.872000000    -0.755000000     4.621000000
H     3.065000000    -0.283000000     3.431000000
O    -3.728000000     0.042000000     0.711000000
H    -4.592000000     0.397000000     0.503000000
H    -3.158000000     0.381000000     0.020000000
O    -2.610000000    -0.008000000    -6.171000000
H    -2.882000000    -0.874000000    -5.868000000
H    -3.424000000     0.422000000    -6.433000000
O     2.678000000     4.251000000     0.239000000
H     2.291000000     4.510000000     1.075000000
H     2.346000000     3.367000000     0.084000000
O    -3.953000000    -2.543000000     1.329000000
H    -3.870000000    -2.591000000     2.281000000
H    -3.849000000    -1.613000000     1.126000000
O     3.640000000     0.907000000     1.861000000
H     2.959000000     0.482000000     1.339000000
H     3.687000000     1.798000000     1.513000000
O     1.788000000     2.276000000    -3.781000000
H     0.986000000     2.549000000    -4.226000000
H     2.068000000     3.052000000    -3.295000000
O    -1.315000000     7.524000000     1.271000000
H    -2.094000000     7.904000000     0.864000000
H    -1.210000000     6.675000000     0.843000000
O    -4.793000000     3.675000000     4.420000000
H    -4.277000000     4.474000000     4.309000000
H    -4.392000000     3.046000000     3.820000000
O    -1.442000000    -5.024000000     1.030000000
H    -1.835000000    -5.701000000     1.582000000
H    -0.966000000    -4.463000000     1.643000000
O    -3.366000000     1.995000000     2.955000000
H    -3.347000000     1.264000000     3.574000000
H    -3.530000000     1.586000000     2.106000000
O     3.730000000     0.503000000    -4.881000000
H     3.227000000     1.225000000    -4.504000000
H     3.489000000     0.501000000    -5.807000000
O    -2.000000000     1.830000000    -4.179000000
H    -2.570000000     1.584000000    -3.450000000
H    -2.158000000     1.159000000    -4.843000000
O    -1.352000000     5.375000000    -2.743000000
H    -1.673000000     6.066000000    -3.323000000
H    -2.085000000     5.199000000    -2.153000000
O    -2.541000000    -5.470000000    -5.034000000
H    -3.064000000    -4.962000000    -5.655000000
H    -1.807000000    -4.897000000    -4.814000000
O     1.967000000    -4.324000000     4.068000000
H     1.435000000    -3.542000000     4.214000000
H     2.040000000    -4.729000000     4.932000000
O    -4.943000000    -1.616000000    -1.941000000
H    -4.887000000    -1.892000000    -1.026000000
H    -5.141000000    -0.681000000    -1.898000000
O     1.417000000    -1.173000000    -3.903000000
H     2.067000000    -0.669000000    -4.392000000
H     1.935000000    -1.750000000    -3.341000000
O    -0.514000000     4.097000000    -5.005000000
H    -0.725000000     4.535000000    -4.180000000
H    -0.923000000     3.235000000    -4.929000000
O     2.575000000     4.794000000    -2.927000000
H     2.085000000     5.509000000    -2.520000000
H     3.419000000     4.796000000    -2.476000000
O    -0.137000000    -2.947000000    -6.970000000
H    -0.879000000    -2.844000000    -7.566000000
H    -0.502000000    -2.782000000    -6.101000000
O    -0.397000000    -4.145000000    -2.135000000
H    -0.613000000    -4.117000000    -1.203000000
H    -0.467000000    -3.235000000    -2.425000000
O     0.076000000    -2.912000000     6.112000000
H    -0.807000000    -2.665000000     6.386000000
H     0.649000000    -2.528000000     6.776000000
O    -1.637000000     4.381000000     7.158000000
H    -1.536000000     4.129000000     6.241000000
H    -1.168000000     5.212000000     7.231000000
O    -2.037000000     0.032000000     4.893000000
H    -2.053000000     0.326000000     5.804000000
H    -1.256000000     0.442000000     4.523000000
