158
-3008.83481
C     0.477000000    -0.841000000     1.166000000
H     0.926000000    -1.583000000     1.822000000
C     0.016000000    -1.313000000    -0.033000000
H     0.088000000    -2.352000000    -0.346000000
C    -0.423000000    -0.441000000    -1.080000000
H    -0.724000000    -0.907000000    -2.058000000
C    -0.521000000     0.912000000    -0.773000000
H    -1.017000000     1.554000000    -1.497000000
C    -0.073000000     1.381000000     0.465000000
H    -0.130000000     2.445000000     0.678000000
C     0.462000000     0.545000000     1.413000000
C     1.066000000     1.101000000     2.737000000
O     1.252000000     0.312000000     3.610000000
O     1.277000000     2.283000000     2.908000000
O    -2.958000000     3.023000000     1.639000000
H    -3.389000000     2.463000000     2.285000000
H    -2.703000000     2.424000000     0.936000000
O    -3.897000000     1.785000000    -0.788000000
H    -3.369000000     1.070000000    -1.141000000
H    -4.770000000     1.642000000    -1.154000000
O     4.152000000    -3.764000000    -0.819000000
H     4.555000000    -4.574000000    -0.507000000
H     4.280000000    -3.141000000    -0.104000000
O    -3.159000000    -4.646000000    -3.240000000
H    -3.815000000    -4.202000000    -3.778000000
H    -3.513000000    -5.526000000    -3.108000000
O     0.579000000     2.185000000     5.841000000
H    -0.279000000     2.074000000     5.432000000
H     1.016000000     1.343000000     5.714000000
O     3.273000000     2.688000000     4.713000000
H     2.646000000     2.382000000     4.058000000
H     2.929000000     3.536000000     4.996000000
O     0.900000000    -6.704000000    -3.750000000
H     1.505000000    -7.049000000    -3.094000000
H     0.519000000    -5.927000000    -3.339000000
O     5.135000000    -0.274000000     0.307000000
H     4.846000000    -0.586000000     1.164000000
H     4.356000000    -0.334000000    -0.245000000
O     3.988000000     1.896000000     7.303000000
H     3.765000000     2.193000000     6.421000000
H     3.143000000     1.756000000     7.730000000
O     1.690000000     5.725000000     3.534000000
H     1.773000000     5.573000000     4.476000000
H     0.965000000     5.162000000     3.264000000
O     0.192000000    -2.297000000    -4.358000000
H     0.359000000    -1.355000000    -4.309000000
H     0.900000000    -2.692000000    -3.849000000
O     4.328000000    -3.422000000    -4.146000000
H     3.792000000    -3.833000000    -4.824000000
H     3.696000000    -3.006000000    -3.560000000
O    -3.503000000     0.273000000     2.566000000
H    -4.401000000     0.088000000     2.290000000
H    -3.013000000    -0.515000000     2.331000000
O     2.417000000    -2.463000000    -2.604000000
H     2.659000000    -3.196000000    -2.039000000
H     2.728000000    -1.687000000    -2.137000000
O     2.442000000    -4.122000000     2.081000000
H     1.958000000    -4.157000000     2.906000000
H     2.170000000    -4.910000000     1.610000000
O     0.520000000     4.977000000    -4.481000000
H    -0.266000000     4.776000000    -4.989000000
H     0.633000000     4.220000000    -3.906000000
O     4.054000000    -1.995000000     2.355000000
H     3.815000000    -1.478000000     3.124000000
H     3.436000000    -2.726000000     2.357000000
O     0.097000000    -1.392000000     5.434000000
H     0.397000000    -1.039000000     4.597000000
H    -0.743000000    -0.960000000     5.589000000
O     2.881000000    -0.133000000    -1.400000000
H     3.070000000     0.585000000    -2.003000000
H     2.031000000     0.091000000    -1.021000000
O    -1.017000000    -5.051000000     1.017000000
H    -1.248000000    -5.176000000     1.938000000
H    -0.371000000    -5.733000000     0.838000000
O    -0.534000000     4.079000000     3.246000000
H    -1.124000000     3.878000000     2.520000000
H     0.037000000     3.314000000     3.310000000
O     4.271000000    -2.463000000     6.204000000
H     5.054000000    -2.206000000     6.691000000
H     4.049000000    -1.692000000     5.681000000
O    -3.871000000     5.064000000    -0.697000000
H    -3.770000000     5.363000000    -1.601000000
H    -4.197000000     4.167000000    -0.777000000
O     0.877000000     0.930000000    -5.422000000
H     1.322000000     1.606000000    -5.932000000
H     1.584000000     0.457000000    -4.982000000
O     0.237000000     6.206000000    -0.084000000
H    -0.217000000     6.876000000    -0.595000000
H     0.472000000     6.646000000     0.733000000
O    -2.122000000    -2.318000000     1.910000000
H    -1.415000000    -2.037000000     1.328000000
H    -2.183000000    -3.264000000     1.773000000
O    -3.425000000    -0.478000000    -3.051000000
H    -2.862000000    -1.240000000    -2.917000000
H    -4.307000000    -0.842000000    -3.127000000
O     3.444000000     3.493000000     0.666000000
H     2.564000000     3.641000000     0.321000000
H     3.316000000     3.374000000     1.607000000
O     3.630000000    -0.436000000     4.449000000
H     2.814000000    -0.086000000     4.092000000
H     3.990000000     0.281000000     4.971000000
O     1.350000000     2.652000000    -2.715000000
H     0.680000000     2.330000000    -2.112000000
H     1.720000000     3.418000000    -2.275000000
O    -2.190000000     6.175000000     3.611000000
H    -2.388000000     6.510000000     2.736000000
H    -1.521000000     5.506000000     3.466000000
O    -1.991000000     1.618000000     4.872000000
H    -2.100000000     1.124000000     4.060000000
H    -2.513000000     2.410000000     4.742000000
O     3.679000000     1.553000000    -3.690000000
H     2.870000000     2.065000000    -3.691000000
H     3.507000000     0.834000000    -4.297000000
O     6.022000000     2.895000000     4.088000000
H     5.145000000     2.852000000     4.468000000
H     6.207000000     3.832000000     4.019000000
O     1.618000000    -1.093000000     8.834000000
H     1.628000000    -1.131000000     7.878000000
H     1.476000000    -0.169000000     9.036000000
O    -1.900000000     0.710000000    -6.260000000
H    -2.448000000     0.756000000    -5.476000000
H    -1.005000000     0.801000000    -5.933000000
O    -2.175000000     1.862000000    -3.700000000
H    -2.108000000     2.496000000    -2.986000000
H    -2.795000000     1.206000000    -3.382000000
O    -1.136000000     4.375000000    -2.071000000
H    -0.880000000     4.592000000    -1.175000000
H    -1.435000000     5.205000000    -2.443000000
O     0.604000000    -3.931000000     4.563000000
H    -0.302000000    -4.026000000     4.270000000
H     0.618000000    -3.096000000     5.031000000
O     1.768000000     4.603000000     6.242000000
H     1.724000000     4.638000000     7.197000000
H     1.082000000     3.983000000     5.993000000
O    -4.088000000    -2.778000000    -0.262000000
H    -3.488000000    -2.155000000     0.148000000
H    -4.722000000    -2.230000000    -0.725000000
O     3.128000000    -0.599000000    -5.255000000
H     3.179000000    -0.613000000    -6.211000000
H     3.486000000    -1.445000000    -4.984000000
O     1.051000000     1.676000000     8.581000000
H     0.770000000     2.418000000     9.117000000
H     0.529000000     1.747000000     7.782000000
O    -1.809000000     3.885000000    -5.778000000
H    -1.719000000     3.245000000    -5.072000000
H    -2.624000000     3.643000000    -6.218000000
O    -0.079000000    -2.287000000    -7.128000000
H    -0.475000000    -3.156000000    -7.059000000
H     0.114000000    -2.039000000    -6.224000000
O    -0.040000000    -4.738000000    -1.543000000
H    -0.098000000    -3.819000000    -1.804000000
H    -0.663000000    -4.822000000    -0.821000000
O    -0.883000000    -5.099000000    -4.911000000
H    -0.537000000    -4.220000000    -4.760000000
H    -1.617000000    -5.176000000    -4.301000000
O    -2.014000000    -0.061000000     7.120000000
H    -2.080000000     0.574000000     6.406000000
H    -2.768000000     0.126000000     7.678000000
