158
-3044.87698
C     0.220000000    -0.405000000     1.410000000
H     0.336000000    -0.799000000     2.416000000
C    -0.615000000    -0.984000000     0.450000000
H    -1.190000000    -1.873000000     0.699000000
C    -0.624000000    -0.587000000    -0.892000000
H    -1.193000000    -1.165000000    -1.641000000
C     0.189000000     0.480000000    -1.320000000
H     0.209000000     0.754000000    -2.371000000
C     0.799000000     1.284000000    -0.318000000
H     1.308000000     2.211000000    -0.567000000
C     0.769000000     0.861000000     1.057000000
C     1.530000000     1.629000000     2.128000000
O     1.379000000     1.220000000     3.264000000
O     2.056000000     2.723000000     2.032000000
O    -1.060000000     4.850000000     1.709000000
H    -1.613000000     4.139000000     1.386000000
H    -1.674000000     5.468000000     2.107000000
O    -1.670000000    -2.325000000    -4.872000000
H    -0.844000000    -2.468000000    -4.411000000
H    -2.329000000    -2.287000000    -4.178000000
O     0.166000000     3.614000000     4.215000000
H    -0.194000000     3.674000000     3.330000000
H     0.782000000     2.883000000     4.174000000
O     3.093000000     2.679000000     5.058000000
H     2.763000000     2.443000000     4.191000000
H     3.675000000     3.422000000     4.899000000
O     2.361000000    -4.839000000    -4.536000000
H     3.149000000    -5.359000000    -4.690000000
H     2.687000000    -3.958000000    -4.353000000
O     4.016000000     6.691000000     0.947000000
H     4.581000000     5.968000000     1.221000000
H     3.150000000     6.459000000     1.283000000
O     3.360000000     1.790000000     7.673000000
H     3.328000000     2.635000000     8.122000000
H     3.048000000     1.978000000     6.788000000
O    -1.878000000    -1.931000000     3.684000000
H    -0.982000000    -2.078000000     3.986000000
H    -2.047000000    -1.009000000     3.873000000
O     2.522000000    -0.506000000    -6.016000000
H     2.003000000    -0.315000000    -5.235000000
H     2.510000000    -1.460000000    -6.085000000
O    -0.503000000     4.655000000    -1.417000000
H    -1.149000000     5.284000000    -1.740000000
H    -0.471000000     4.808000000    -0.473000000
O     2.711000000    -1.085000000    -1.119000000
H     2.208000000    -1.864000000    -0.883000000
H     2.076000000    -0.508000000    -1.543000000
O     1.375000000     6.075000000     5.696000000
H     0.831000000     5.726000000     6.403000000
H     1.431000000     5.360000000     5.062000000
O     4.558000000    -3.823000000     2.437000000
H     4.789000000    -4.643000000     2.875000000
H     3.900000000    -3.424000000     3.006000000
O     2.782000000    -0.924000000     4.037000000
H     3.664000000    -0.580000000     4.179000000
H     2.365000000    -0.282000000     3.462000000
O     6.053000000     5.090000000     2.280000000
H     6.143000000     5.961000000     2.666000000
H     5.922000000     4.508000000     3.029000000
O    -4.113000000    -3.681000000     1.195000000
H    -4.823000000    -3.726000000     1.835000000
H    -3.965000000    -2.745000000     1.065000000
O     4.876000000     0.657000000    -0.960000000
H     4.677000000     1.537000000    -0.641000000
H     4.028000000     0.213000000    -0.984000000
O     1.591000000     5.387000000     1.623000000
H     0.662000000     5.371000000     1.854000000
H     1.933000000     4.556000000     1.951000000
O    -4.206000000     1.770000000    -2.542000000
H    -3.996000000     1.846000000    -3.473000000
H    -5.035000000     2.238000000    -2.445000000
O     5.504000000     0.248000000     4.005000000
H     5.946000000     0.808000000     4.643000000
H     5.701000000     0.647000000     3.158000000
O     1.615000000     7.132000000    -1.764000000
H     1.410000000     6.315000000    -1.309000000
H     0.772000000     7.435000000    -2.102000000
O    -6.015000000    -1.853000000    -2.175000000
H    -6.616000000    -2.563000000    -2.401000000
H    -6.511000000    -1.302000000    -1.570000000
O    -2.451000000     1.502000000     0.015000000
H    -2.937000000     1.661000000    -0.795000000
H    -1.614000000     1.139000000    -0.275000000
O    -2.085000000     0.240000000    -5.972000000
H    -3.018000000     0.247000000    -5.756000000
H    -1.764000000    -0.588000000    -5.617000000
O     4.228000000     3.064000000     0.647000000
H     3.431000000     2.895000000     1.148000000
H     4.933000000     2.719000000     1.194000000
O    -4.181000000    -0.749000000     0.873000000
H    -3.866000000    -0.766000000     1.777000000
H    -3.581000000    -0.156000000     0.421000000
O     6.238000000     1.224000000     1.493000000
H     7.144000000     1.146000000     1.196000000
H     5.737000000     0.691000000     0.875000000
O    -6.734000000    -0.388000000     0.073000000
H    -6.861000000     0.544000000     0.246000000
H    -5.784000000    -0.508000000     0.094000000
O     2.661000000     1.638000000    -2.999000000
H     1.933000000     2.196000000    -3.273000000
H     3.237000000     2.222000000    -2.504000000
O    -3.543000000    -4.121000000     4.369000000
H    -2.735000000    -4.620000000     4.488000000
H    -3.306000000    -3.423000000     3.759000000
O    -1.144000000    -4.589000000     1.980000000
H    -1.561000000    -3.741000000     2.133000000
H    -0.814000000    -4.852000000     2.839000000
O    -2.429000000     2.450000000     2.483000000
H    -2.038000000     1.768000000     3.029000000
H    -2.351000000     2.116000000     1.590000000
O    -2.290000000    -6.570000000     0.441000000
H    -1.892000000    -5.916000000     1.016000000
H    -2.167000000    -7.401000000     0.902000000
O    -2.005000000    -6.444000000    -2.293000000
H    -2.029000000    -6.229000000    -1.360000000
H    -2.343000000    -5.662000000    -2.728000000
O     4.389000000     1.474000000    -5.163000000
H     3.859000000     1.455000000    -4.366000000
H     3.952000000     0.863000000    -5.756000000
O     0.376000000     3.165000000    -3.630000000
H     0.199000000     3.768000000    -2.909000000
H    -0.485000000     2.821000000    -3.872000000
O    -2.049000000    -3.747000000    -0.950000000
H    -1.148000000    -4.065000000    -0.895000000
H    -2.450000000    -4.019000000    -0.125000000
O     0.347000000    -3.189000000    -3.120000000
H     0.478000000    -3.277000000    -2.176000000
H     0.622000000    -4.033000000    -3.479000000
O    -6.715000000    -0.591000000    -4.526000000
H    -6.636000000    -1.418000000    -5.001000000
H    -6.314000000    -0.765000000    -3.674000000
O     2.904000000    -3.758000000     4.874000000
H     2.095000000    -3.247000000     4.856000000
H     3.545000000    -3.177000000     5.284000000
O    -3.701000000    -5.150000000    -4.385000000
H    -3.255000000    -4.703000000    -5.104000000
H    -3.909000000    -4.454000000    -3.762000000
O    -3.685000000    -2.728000000    -3.052000000
H    -3.100000000    -2.707000000    -2.294000000
H    -4.517000000    -2.390000000    -2.722000000
O     3.795000000    -2.393000000    -4.038000000
H     4.427000000    -2.664000000    -3.373000000
H     3.583000000    -1.487000000    -3.812000000
O     2.620000000     4.834000000    -3.953000000
H     2.970000000     4.300000000    -3.240000000
H     1.784000000     4.422000000    -4.172000000
O     3.933000000     4.020000000    -1.739000000
H     4.167000000     4.948000000    -1.737000000
H     3.936000000     3.771000000    -0.814000000
O     0.724000000    -3.941000000    -0.412000000
H     0.512000000    -4.054000000     0.515000000
H     1.672000000    -4.060000000    -0.458000000
O     0.572000000    -2.162000000     4.626000000
H     1.151000000    -1.558000000     4.163000000
H     0.255000000    -1.662000000     5.378000000
O    -1.586000000     0.623000000     4.340000000
H    -2.012000000     0.907000000     5.149000000
H    -0.659000000     0.821000000     4.475000000
