158
-3035.74937
C     0.216000000     0.570000000     1.364000000
H     0.305000000     0.739000000     2.434000000
C    -0.565000000    -0.585000000     1.025000000
H    -1.027000000    -1.201000000     1.793000000
C    -0.687000000    -0.992000000    -0.288000000
H    -1.267000000    -1.890000000    -0.487000000
C    -0.114000000    -0.250000000    -1.251000000
H    -0.254000000    -0.416000000    -2.316000000
C     0.719000000     0.842000000    -0.934000000
H     1.146000000     1.491000000    -1.694000000
C     0.960000000     1.281000000     0.398000000
C     1.911000000     2.365000000     0.748000000
O     2.182000000     2.474000000     1.937000000
O     2.478000000     3.078000000    -0.024000000
O    -0.991000000     2.830000000     3.688000000
H    -1.169000000     3.418000000     4.422000000
H    -0.044000000     2.889000000     3.559000000
O    -4.799000000     1.781000000    -4.598000000
H    -5.060000000     2.563000000    -4.111000000
H    -4.532000000     1.157000000    -3.922000000
O     3.605000000    -0.512000000    -2.807000000
H     3.580000000    -0.944000000    -1.953000000
H     4.222000000     0.210000000    -2.693000000
O     1.846000000    -1.887000000     3.280000000
H     1.318000000    -2.307000000     3.960000000
H     2.509000000    -1.393000000     3.763000000
O    -0.264000000    -1.807000000    -5.469000000
H     0.336000000    -1.248000000    -4.975000000
H    -1.127000000    -1.614000000    -5.102000000
O    -6.349000000    -4.496000000    -3.503000000
H    -6.324000000    -5.180000000    -4.172000000
H    -5.430000000    -4.273000000    -3.355000000
O     0.381000000     4.944000000    -0.189000000
H    -0.270000000     4.249000000    -0.084000000
H     1.223000000     4.492000000    -0.138000000
O     1.975000000     3.628000000     4.170000000
H     2.576000000     4.329000000     3.920000000
H     2.022000000     3.003000000     3.447000000
O     5.339000000     7.160000000    -0.001000000
H     4.634000000     7.741000000     0.282000000
H     4.935000000     6.293000000    -0.038000000
O     4.366000000    -0.578000000     4.208000000
H     4.447000000     0.133000000     3.572000000
H     5.190000000    -1.059000000     4.135000000
O    -3.033000000     1.117000000     3.651000000
H    -3.640000000     1.473000000     4.300000000
H    -2.234000000     1.631000000     3.764000000
O    -2.947000000    -1.933000000     3.604000000
H    -3.724000000    -2.231000000     4.076000000
H    -2.901000000    -0.994000000     3.787000000
O    -3.786000000    -2.605000000    -3.590000000
H    -3.940000000    -3.211000000    -4.315000000
H    -2.971000000    -2.910000000    -3.192000000
O     5.716000000     1.246000000    -2.877000000
H     5.296000000     1.756000000    -3.569000000
H     6.369000000     1.839000000    -2.504000000
O    -0.726000000     0.710000000    -6.846000000
H    -1.252000000     1.036000000    -7.576000000
H    -1.367000000     0.476000000    -6.175000000
O     4.525000000     1.418000000     2.293000000
H     5.036000000     2.222000000     2.194000000
H     3.614000000     1.703000000     2.218000000
O    -3.222000000    -4.080000000     0.081000000
H    -3.741000000    -4.866000000    -0.091000000
H    -2.605000000    -4.345000000     0.763000000
O     5.716000000     4.073000000     3.267000000
H     5.096000000     4.418000000     3.909000000
H     5.375000000     4.366000000     2.422000000
O     3.353000000     4.117000000    -2.286000000
H     3.176000000     3.815000000    -1.395000000
H     2.651000000     4.741000000    -2.471000000
O    -6.796000000    -0.937000000     2.495000000
H    -6.326000000    -1.408000000     1.807000000
H    -7.405000000    -1.582000000     2.853000000
O     0.743000000     7.529000000     0.543000000
H     1.689000000     7.572000000     0.677000000
H     0.545000000     6.592000000     0.526000000
O    -4.565000000    -0.247000000    -1.078000000
H    -5.468000000     0.036000000    -1.219000000
H    -4.040000000     0.356000000    -1.604000000
O    -1.562000000    -4.312000000     2.285000000
H    -1.913000000    -3.508000000     2.667000000
H    -1.630000000    -4.960000000     2.986000000
O    -0.736000000    -4.851000000    -5.746000000
H    -1.227000000    -4.031000000    -5.792000000
H    -0.031000000    -4.673000000    -5.124000000
O    -5.686000000    -2.467000000     0.211000000
H    -5.389000000    -1.627000000    -0.140000000
H    -4.955000000    -3.064000000     0.055000000
O    -2.363000000    -0.392000000    -4.544000000
H    -2.963000000    -1.073000000    -4.242000000
H    -2.388000000     0.272000000    -3.854000000
O    -3.857000000     1.422000000     1.092000000
H    -3.413000000     1.271000000     1.926000000
H    -3.731000000     0.608000000     0.603000000
O     1.445000000     2.714000000    -5.767000000
H     0.879000000     2.011000000    -6.084000000
H     0.884000000     3.490000000    -5.764000000
O     4.394000000     4.711000000     1.064000000
H     3.813000000     4.046000000     0.695000000
H     3.804000000     5.357000000     1.453000000
O     3.352000000     6.025000000     3.446000000
H     2.632000000     6.512000000     3.846000000
H     4.070000000     6.656000000     3.399000000
O    -1.910000000     3.695000000     1.305000000
H    -1.498000000     3.560000000     2.158000000
H    -2.604000000     3.037000000     1.266000000
O    -0.682000000    -5.577000000    -0.056000000
H    -1.074000000    -5.202000000     0.733000000
H     0.217000000    -5.249000000    -0.056000000
O     5.450000000     2.515000000     5.787000000
H     6.306000000     2.868000000     5.545000000
H     4.973000000     2.455000000     4.959000000
O    -0.028000000    -3.647000000     5.761000000
H    -0.167000000    -3.254000000     6.623000000
H    -0.720000000    -3.276000000     5.214000000
O     1.496000000    -4.807000000    -2.666000000
H     1.042000000    -5.648000000    -2.726000000
H     1.674000000    -4.698000000    -1.732000000
O    -0.482000000     3.442000000    -3.188000000
H     0.159000000     3.937000000    -2.677000000
H    -0.251000000     3.621000000    -4.100000000
O     4.375000000    -1.506000000    -0.175000000
H     3.633000000    -1.962000000     0.221000000
H     4.824000000    -1.093000000     0.562000000
O     1.820000000    -2.266000000     0.660000000
H     1.869000000    -2.191000000     1.613000000
H     1.267000000    -1.532000000     0.390000000
O    -1.216000000    -3.525000000    -2.542000000
H    -1.593000000    -4.093000000    -1.870000000
H    -0.286000000    -3.754000000    -2.555000000
O    -2.383000000    -6.402000000    -3.038000000
H    -2.214000000    -5.918000000    -3.846000000
H    -1.653000000    -6.171000000    -2.463000000
O     1.531000000    -0.039000000    -4.320000000
H     0.898000000     0.404000000    -3.754000000
H     2.234000000    -0.307000000    -3.728000000
O     1.393000000     5.667000000    -3.140000000
H     1.686000000     5.862000000    -4.030000000
H     0.813000000     6.394000000    -2.913000000
O     4.637000000     2.960000000    -4.779000000
H     5.217000000     3.706000000    -4.625000000
H     3.788000000     3.242000000    -4.438000000
O     6.099000000     4.618000000    -1.979000000
H     5.795000000     5.457000000    -2.326000000
H     5.296000000     4.146000000    -1.755000000
O     2.137000000    -5.098000000     0.099000000
H     1.903000000    -4.241000000     0.457000000
H     2.959000000    -5.323000000     0.535000000
O     2.479000000    -0.151000000     6.423000000
H     2.823000000    -0.211000000     7.314000000
H     3.245000000     0.041000000     5.882000000
O    -0.303000000    -0.217000000     5.621000000
H     0.447000000     0.194000000     6.050000000
H    -0.167000000    -0.050000000     4.689000000
O    -2.488000000     1.480000000    -2.597000000
H    -2.042000000     2.175000000    -3.082000000
H    -1.896000000     1.275000000    -1.873000000
