158
-2997.85383
C    -0.016000000    -0.631000000     1.398000000
H    -0.253000000    -1.177000000     2.308000000
C    -0.396000000    -1.269000000     0.205000000
H    -0.913000000    -2.224000000     0.261000000
C    -0.310000000    -0.581000000    -0.997000000
H    -0.751000000    -1.045000000    -1.874000000
C     0.298000000     0.683000000    -1.093000000
H     0.465000000     1.144000000    -2.062000000
C     0.675000000     1.316000000     0.067000000
H     1.014000000     2.349000000     0.084000000
C     0.506000000     0.659000000     1.305000000
C     0.771000000     1.339000000     2.628000000
O     1.234000000     0.750000000     3.512000000
O     0.789000000     2.614000000     2.616000000
O     1.536000000    -5.430000000     1.736000000
H     1.737000000    -4.990000000     2.561000000
H     1.998000000    -6.266000000     1.791000000
O    -5.804000000    -4.423000000    -1.887000000
H    -5.608000000    -3.553000000    -2.232000000
H    -6.106000000    -4.264000000    -0.993000000
O     0.380000000    -4.339000000    -6.199000000
H     0.869000000    -5.138000000    -6.397000000
H     1.019000000    -3.767000000    -5.774000000
O    -0.871000000     3.925000000     4.419000000
H    -1.287000000     4.619000000     3.909000000
H    -0.733000000     3.216000000     3.792000000
O    -5.330000000    -2.174000000    -3.181000000
H    -4.581000000    -2.243000000    -2.589000000
H    -4.954000000    -2.267000000    -4.056000000
O     1.863000000     4.783000000     4.195000000
H     1.045000000     4.286000000     4.165000000
H     2.408000000     4.389000000     3.513000000
O    -0.794000000    -1.148000000    -6.693000000
H    -1.511000000    -1.642000000    -6.296000000
H    -0.461000000    -1.723000000    -7.382000000
O    -3.228000000    -6.276000000    -5.204000000
H    -2.886000000    -5.419000000    -4.949000000
H    -3.207000000    -6.268000000    -6.161000000
O     3.424000000     3.598000000     2.221000000
H     4.106000000     3.017000000     1.886000000
H     2.660000000     3.033000000     2.332000000
O     4.910000000    -1.206000000     4.650000000
H     5.689000000    -1.699000000     4.394000000
H     4.879000000    -1.284000000     5.603000000
O     0.785000000    -4.096000000    -2.987000000
H     1.289000000    -4.909000000    -2.953000000
H     1.385000000    -3.458000000    -3.373000000
O    -0.950000000    -5.039000000     0.189000000
H    -0.139000000    -4.680000000     0.549000000
H    -1.217000000    -5.708000000     0.819000000
O     3.925000000    -4.046000000    -0.234000000
H     3.307000000    -4.613000000     0.229000000
H     3.427000000    -3.250000000    -0.418000000
O     3.470000000    -0.385000000     2.366000000
H     3.944000000    -0.949000000     2.977000000
H     2.764000000    -0.005000000     2.890000000
O     2.671000000    -2.562000000    -4.702000000
H     3.016000000    -2.441000000    -5.587000000
H     3.352000000    -3.055000000    -4.245000000
O     1.217000000     4.102000000    -5.709000000
H     1.025000000     3.172000000    -5.590000000
H     1.260000000     4.453000000    -4.820000000
O     4.305000000     1.257000000     0.579000000
H     3.861000000     0.771000000     1.274000000
H     5.065000000     1.649000000     1.009000000
O     0.993000000    -1.449000000     4.973000000
H     0.882000000    -0.642000000     4.469000000
H     0.361000000    -2.058000000     4.591000000
O     3.265000000    -1.399000000    -0.280000000
H     3.499000000    -0.929000000     0.521000000
H     2.322000000    -1.267000000    -0.369000000
O    -0.504000000     4.641000000     1.254000000
H    -1.105000000     5.006000000     1.904000000
H    -0.185000000     3.831000000     1.652000000
O     2.649000000     0.008000000    -3.639000000
H     1.819000000     0.388000000    -3.928000000
H     2.575000000    -0.921000000    -3.857000000
O    -3.809000000     0.425000000    -6.176000000
H    -3.683000000     1.084000000    -5.494000000
H    -3.856000000    -0.405000000    -5.702000000
O    -3.981000000    -0.613000000     2.553000000
H    -4.458000000    -1.093000000     3.231000000
H    -4.476000000    -0.776000000     1.751000000
O    -3.116000000    -2.101000000    -1.487000000
H    -3.238000000    -1.546000000    -0.716000000
H    -2.507000000    -2.780000000    -1.198000000
O     1.077000000    -7.093000000    -0.970000000
H     1.761000000    -6.920000000    -0.324000000
H     0.351000000    -6.526000000    -0.707000000
O     2.019000000     5.389000000     0.028000000
H     2.737000000     4.799000000     0.257000000
H     1.310000000     5.145000000     0.623000000
O    -1.860000000    -1.888000000     6.922000000
H    -2.626000000    -1.672000000     7.454000000
H    -1.631000000    -1.067000000     6.487000000
O     2.578000000     1.168000000     6.252000000
H     2.118000000     1.195000000     5.413000000
H     3.017000000     0.318000000     6.257000000
O     1.415000000     5.332000000    -3.440000000
H     0.614000000     4.980000000    -3.051000000
H     1.756000000     5.937000000    -2.781000000
O     3.399000000     3.923000000     6.231000000
H     2.913000000     4.448000000     5.595000000
H     3.178000000     3.017000000     6.012000000
O    -3.314000000    -3.375000000     4.727000000
H    -2.790000000    -2.988000000     5.428000000
H    -4.161000000    -2.935000000     4.791000000
O    -2.115000000     5.852000000     3.008000000
H    -2.961000000     5.572000000     2.661000000
H    -2.208000000     6.797000000     3.133000000
O     4.487000000     1.659000000    -2.554000000
H     4.427000000     1.424000000    -1.628000000
H     3.999000000     0.971000000    -3.008000000
O    -3.520000000    -4.135000000     2.027000000
H    -3.238000000    -3.750000000     2.857000000
H    -2.833000000    -4.766000000     1.810000000
O     1.843000000    -1.774000000     7.568000000
H     1.372000000    -1.357000000     6.846000000
H     1.401000000    -1.457000000     8.356000000
O    -1.288000000     5.433000000    -1.507000000
H    -1.447000000     6.373000000    -1.418000000
H    -1.058000000     5.144000000    -0.624000000
O    -0.388000000    -3.548000000     4.178000000
H    -1.291000000    -3.865000000     4.177000000
H     0.145000000    -4.343000000     4.207000000
O    -5.987000000    -3.802000000     0.873000000
H    -5.088000000    -3.930000000     1.173000000
H    -6.528000000    -4.118000000     1.597000000
O    -0.050000000     5.576000000     6.990000000
H     0.687000000     5.417000000     7.580000000
H     0.246000000     5.246000000     6.142000000
O     3.883000000     4.353000000    -3.395000000
H     3.825000000     3.475000000    -3.018000000
H     2.980000000     4.673000000    -3.395000000
O    -1.731000000     2.590000000    -5.041000000
H    -2.385000000     3.120000000    -4.586000000
H    -1.983000000     2.640000000    -5.964000000
O     0.501000000     1.023000000    -5.385000000
H     0.026000000     0.225000000    -5.615000000
H    -0.141000000     1.560000000    -4.921000000
O     2.360000000    -4.202000000     3.840000000
H     2.104000000    -3.679000000     4.600000000
H     3.303000000    -4.328000000     3.943000000
O    -1.569000000    -3.808000000    -4.484000000
H    -0.912000000    -3.752000000    -3.790000000
H    -1.071000000    -4.044000000    -5.267000000
O    -2.641000000    -5.600000000    -1.793000000
H    -2.967000000    -4.707000000    -1.907000000
H    -1.945000000    -5.519000000    -1.141000000
O    -3.613000000    -2.144000000    -5.442000000
H    -2.950000000    -2.779000000    -5.173000000
H    -4.042000000    -2.550000000    -6.195000000
O    -1.081000000     2.376000000     6.548000000
H    -0.935000000     3.042000000     5.877000000
H    -1.638000000     1.724000000     6.121000000
O    -3.157000000     0.826000000     5.095000000
H    -3.391000000     0.466000000     4.240000000
H    -3.982000000     1.161000000     5.447000000
