158
-3012.03822
C     0.440000000    -0.618000000     1.230000000
H     0.835000000    -1.134000000     2.101000000
C     0.278000000    -1.253000000    -0.022000000
H     0.699000000    -2.255000000    -0.036000000
C    -0.233000000    -0.534000000    -1.070000000
H    -0.291000000    -1.022000000    -2.113000000
C    -0.537000000     0.762000000    -0.946000000
H    -1.017000000     1.304000000    -1.757000000
C    -0.264000000     1.425000000     0.263000000
H    -0.572000000     2.462000000     0.369000000
C     0.297000000     0.772000000     1.358000000
C     0.525000000     1.424000000     2.658000000
O     0.868000000     0.822000000     3.639000000
O     0.100000000     2.570000000     2.818000000
O     3.634000000    -0.252000000    -2.266000000
H     3.983000000    -0.918000000    -2.858000000
H     3.752000000    -0.623000000    -1.392000000
O     2.088000000     1.972000000     5.600000000
H     1.649000000     1.611000000     4.829000000
H     2.054000000     1.268000000     6.247000000
O     1.724000000    -1.602000000    -4.540000000
H     1.494000000    -2.305000000    -3.933000000
H     2.681000000    -1.584000000    -4.534000000
O     3.217000000    -3.613000000     4.096000000
H     2.627000000    -4.137000000     3.554000000
H     2.700000000    -2.845000000     4.340000000
O     2.797000000    -0.637000000     6.735000000
H     2.390000000    -0.953000000     5.929000000
H     3.675000000    -1.018000000     6.725000000
O    -0.990000000    -4.166000000     1.693000000
H    -0.433000000    -4.492000000     0.987000000
H    -0.773000000    -4.718000000     2.444000000
O     1.782000000     4.514000000     4.114000000
H     1.236000000     3.796000000     3.795000000
H     1.972000000     4.283000000     5.024000000
O    -3.937000000     1.538000000    -1.653000000
H    -4.032000000     2.479000000    -1.503000000
H    -4.725000000     1.292000000    -2.137000000
O     2.241000000     4.366000000     6.801000000
H     1.793000000     3.531000000     6.662000000
H     2.627000000     4.288000000     7.674000000
O     1.519000000     1.636000000    -2.908000000
H     2.287000000     1.118000000    -2.668000000
H     0.858000000     0.987000000    -3.150000000
O     1.436000000    -1.339000000    -7.763000000
H     1.076000000    -0.682000000    -8.358000000
H     2.034000000    -0.849000000    -7.199000000
O     3.710000000    -0.605000000     2.941000000
H     3.197000000     0.201000000     3.008000000
H     4.276000000    -0.466000000     2.181000000
O     0.071000000     6.824000000     4.947000000
H     0.595000000     7.607000000     5.112000000
H     0.706000000     6.108000000     4.937000000
O    -3.144000000    -0.118000000     5.434000000
H    -2.394000000     0.477000000     5.447000000
H    -2.792000000    -0.938000000     5.087000000
O     4.483000000     1.968000000     7.124000000
H     4.743000000     2.865000000     7.334000000
H     3.836000000     2.064000000     6.425000000
O    -5.238000000    -1.104000000    -4.752000000
H    -4.507000000    -0.948000000    -4.154000000
H    -5.654000000    -1.900000000    -4.421000000
O     0.296000000    -3.880000000    -3.517000000
H    -0.550000000    -4.183000000    -3.187000000
H     0.343000000    -4.226000000    -4.408000000
O    -0.639000000    -0.124000000    -4.421000000
H     0.159000000    -0.651000000    -4.390000000
H    -0.541000000     0.413000000    -5.208000000
O     2.075000000    -5.488000000     2.757000000
H     1.912000000    -6.055000000     3.510000000
H     2.399000000    -6.079000000     2.077000000
O    -3.522000000     5.309000000     2.932000000
H    -2.733000000     5.073000000     2.446000000
H    -4.198000000     4.724000000     2.591000000
O    -0.065000000     3.723000000    -3.757000000
H     0.267000000     2.873000000    -3.468000000
H    -0.982000000     3.558000000    -3.980000000
O     5.432000000    -1.444000000     4.622000000
H     4.721000000    -0.913000000     4.263000000
H     5.182000000    -2.346000000     4.422000000
O    -1.022000000     2.090000000    -6.121000000
H    -0.992000000     2.028000000    -7.076000000
H    -1.620000000     2.816000000    -5.947000000
O    -1.282000000     1.758000000     5.218000000
H    -1.763000000     2.531000000     4.924000000
H    -0.581000000     1.653000000     4.574000000
O    -5.006000000     2.923000000     2.403000000
H    -4.800000000     2.228000000     1.778000000
H    -5.155000000     2.465000000     3.230000000
O    -4.401000000     0.238000000     0.802000000
H    -3.945000000     0.620000000     0.052000000
H    -3.831000000    -0.475000000     1.091000000
O     2.643000000    -4.272000000    -1.625000000
H     3.146000000    -4.827000000    -2.221000000
H     1.835000000    -4.080000000    -2.101000000
O    -2.446000000    -1.825000000     0.805000000
H    -1.730000000    -1.349000000     0.387000000
H    -2.029000000    -2.597000000     1.188000000
O    -0.740000000     5.012000000    -1.354000000
H    -0.638000000     5.918000000    -1.646000000
H    -0.697000000     4.495000000    -2.158000000
O    -1.951000000     4.927000000     5.216000000
H    -1.383000000     5.697000000     5.184000000
H    -2.698000000     5.158000000     4.663000000
O    -0.235000000     0.304000000     7.447000000
H    -0.729000000     0.646000000     6.701000000
H    -0.474000000    -0.621000000     7.489000000
O     0.709000000    -5.349000000    -0.432000000
H     1.476000000    -4.814000000    -0.636000000
H     1.072000000    -6.176000000    -0.115000000
O    -3.083000000    -0.499000000    -3.282000000
H    -3.227000000     0.250000000    -2.703000000
H    -2.156000000    -0.446000000    -3.516000000
O    -2.016000000    -2.701000000     4.802000000
H    -2.623000000    -2.886000000     4.085000000
H    -1.480000000    -3.491000000     4.871000000
O    -2.821000000    -2.799000000    -5.563000000
H    -3.530000000    -2.155000000    -5.565000000
H    -2.656000000    -2.970000000    -4.635000000
O     3.794000000    -4.346000000     0.812000000
H     3.244000000    -4.365000000     0.029000000
H     3.174000000    -4.294000000     1.539000000
O     0.317000000    -3.714000000    -6.595000000
H    -0.289000000    -3.243000000    -6.022000000
H     0.779000000    -3.025000000    -7.073000000
O    -0.941000000     4.975000000     1.774000000
H    -0.675000000     4.209000000     2.282000000
H    -1.067000000     4.642000000     0.886000000
O     4.248000000     1.567000000    -4.565000000
H     3.939000000     0.892000000    -3.960000000
H     3.816000000     1.362000000    -5.394000000
O    -1.804000000    -6.446000000    -0.706000000
H    -1.518000000    -7.006000000     0.015000000
H    -1.037000000    -5.913000000    -0.915000000
O     4.370000000    -2.061000000    -4.396000000
H     5.219000000    -1.961000000    -3.965000000
H     4.400000000    -2.936000000    -4.785000000
O    -4.449000000     4.222000000    -1.016000000
H    -5.379000000     4.202000000    -0.794000000
H    -4.219000000     5.151000000    -1.005000000
O     1.151000000    -1.809000000     4.562000000
H     0.212000000    -1.990000000     4.600000000
H     1.235000000    -1.115000000     3.908000000
O     5.081000000     3.587000000     4.620000000
H     5.062000000     3.921000000     5.517000000
H     4.162000000     3.430000000     4.403000000
O     3.761000000     6.429000000     2.847000000
H     2.922000000     6.012000000     3.042000000
H     4.417000000     5.791000000     3.128000000
O    -2.540000000    -3.460000000    -2.888000000
H    -3.157000000    -4.063000000    -2.474000000
H    -2.698000000    -2.621000000    -2.455000000
O     2.482000000     3.326000000    -0.853000000
H     2.092000000     3.404000000     0.018000000
H     1.858000000     2.796000000    -1.349000000
O    -0.747000000     7.497000000     2.486000000
H    -0.891000000     6.661000000     2.043000000
H    -0.714000000     7.273000000     3.416000000
