158
-3046.16034
C     1.295000000    -0.429000000    -0.554000000
H     2.290000000    -0.406000000    -0.992000000
C     1.064000000     0.238000000     0.708000000
H     1.907000000     0.456000000     1.358000000
C    -0.237000000     0.465000000     1.146000000
H    -0.466000000     0.757000000     2.208000000
C    -1.272000000     0.085000000     0.278000000
H    -2.271000000     0.230000000     0.682000000
C    -1.049000000    -0.451000000    -1.000000000
H    -1.834000000    -0.609000000    -1.735000000
C     0.253000000    -0.736000000    -1.415000000
C     0.502000000    -1.050000000    -2.837000000
O    -0.434000000    -1.328000000    -3.562000000
O     1.637000000    -1.033000000    -3.252000000
O     0.072000000     2.982000000    -2.259000000
H     0.455000000     2.109000000    -2.170000000
H     0.381000000     3.293000000    -3.109000000
O    -4.404000000    -0.718000000    -5.201000000
H    -3.789000000    -1.304000000    -4.758000000
H    -4.226000000     0.144000000    -4.824000000
O     1.748000000    -2.057000000     5.676000000
H     2.194000000    -1.664000000     4.926000000
H     1.382000000    -2.873000000     5.336000000
O    -1.161000000    -1.318000000    -6.162000000
H    -0.387000000    -1.035000000    -6.648000000
H    -0.889000000    -1.296000000    -5.244000000
O     1.987000000     3.267000000     4.036000000
H     1.358000000     3.949000000     4.274000000
H     1.598000000     2.457000000     4.366000000
O    -0.053000000     4.748000000     5.562000000
H    -0.717000000     5.076000000     4.957000000
H     0.543000000     5.486000000     5.687000000
O    -0.232000000    -4.500000000    -0.757000000
H    -0.107000000    -5.103000000    -1.490000000
H    -0.232000000    -5.063000000     0.018000000
O     5.604000000    -0.650000000    -0.793000000
H     5.909000000     0.079000000    -0.253000000
H     5.740000000    -0.355000000    -1.693000000
O    -2.773000000    -2.374000000    -3.309000000
H    -2.030000000    -1.771000000    -3.336000000
H    -2.631000000    -2.894000000    -2.518000000
O    -2.644000000    -5.067000000    -4.264000000
H    -2.918000000    -5.539000000    -5.051000000
H    -3.117000000    -4.236000000    -4.306000000
O     2.253000000    -0.985000000    -5.924000000
H     2.031000000    -0.912000000    -4.996000000
H     2.021000000    -0.133000000    -6.293000000
O     1.583000000    -3.260000000    -7.803000000
H     1.635000000    -4.207000000    -7.938000000
H     1.650000000    -3.149000000    -6.855000000
O     3.003000000     0.149000000     7.032000000
H     2.501000000    -0.574000000     6.656000000
H     3.681000000     0.334000000     6.383000000
O     3.722000000    -4.448000000    -4.605000000
H     2.786000000    -4.248000000    -4.601000000
H     3.776000000    -5.337000000    -4.955000000
O    -1.346000000    -2.207000000     4.446000000
H    -1.214000000    -1.813000000     5.308000000
H    -1.585000000    -1.472000000     3.881000000
O    -3.315000000     3.208000000     3.153000000
H    -3.246000000     2.253000000     3.172000000
H    -2.662000000     3.481000000     2.508000000
O     3.271000000     1.110000000    -3.689000000
H     3.277000000     1.295000000    -4.628000000
H     2.700000000     0.346000000    -3.599000000
O    -0.112000000     6.061000000     2.865000000
H     0.754000000     6.468000000     2.891000000
H    -0.001000000     5.295000000     2.301000000
O     5.049000000     0.149000000     4.954000000
H     5.676000000     0.501000000     5.587000000
H     5.339000000     0.499000000     4.111000000
O    -2.677000000     3.164000000    -2.448000000
H    -3.116000000     2.977000000    -1.618000000
H    -1.747000000     3.037000000    -2.261000000
O     3.374000000     3.430000000    -2.233000000
H     4.321000000     3.355000000    -2.122000000
H     3.124000000     2.634000000    -2.703000000
O    -6.239000000    -1.056000000     3.554000000
H    -7.062000000    -1.258000000     3.110000000
H    -5.594000000    -1.000000000     2.849000000
O     4.024000000     3.429000000     2.115000000
H     4.646000000     4.087000000     2.427000000
H     3.303000000     3.463000000     2.743000000
O     0.220000000     4.138000000     0.753000000
H     0.494000000     4.197000000    -0.162000000
H     0.268000000     3.204000000     0.958000000
O    -6.124000000     1.786000000    -1.208000000
H    -5.757000000     0.947000000    -1.487000000
H    -6.548000000     1.597000000    -0.371000000
O     6.041000000     2.208000000    -2.808000000
H     6.449000000     2.701000000    -3.520000000
H     6.067000000     1.297000000    -3.102000000
O     0.218000000    -2.792000000     1.165000000
H     0.317000000    -3.181000000     0.297000000
H     0.334000000    -1.852000000     1.021000000
O     0.402000000     3.182000000    -5.148000000
H     0.846000000     4.030000000    -5.149000000
H     0.831000000     2.686000000    -5.846000000
O    -2.197000000     2.110000000    -4.972000000
H    -2.723000000     2.522000000    -4.285000000
H    -1.337000000     2.521000000    -4.893000000
O    -2.832000000    -2.832000000    -0.552000000
H    -2.525000000    -3.702000000    -0.300000000
H    -2.058000000    -2.273000000    -0.479000000
O     6.201000000     1.257000000     2.682000000
H     6.776000000     1.585000000     1.990000000
H     5.483000000     1.889000000     2.716000000
O    -1.061000000     0.936000000     5.511000000
H    -0.783000000     0.482000000     6.306000000
H    -1.382000000     1.784000000     5.820000000
O    -3.448000000    -1.998000000     2.152000000
H    -3.046000000    -1.192000000     2.475000000
H    -3.018000000    -2.160000000     1.312000000
O     3.284000000    -2.670000000    -1.632000000
H     2.883000000    -2.226000000    -2.380000000
H     4.147000000    -2.266000000    -1.548000000
O     4.838000000    -1.755000000    -5.700000000
H     3.953000000    -1.641000000    -6.046000000
H     4.882000000    -2.679000000    -5.455000000
O     0.012000000    -6.257000000    -2.832000000
H    -0.758000000    -5.856000000    -3.235000000
H     0.610000000    -6.417000000    -3.562000000
O     6.157000000    -0.542000000    -3.569000000
H     5.630000000    -0.835000000    -4.313000000
H     7.001000000    -0.976000000    -3.688000000
O    -2.795000000     0.313000000     3.718000000
H    -3.222000000    -0.403000000     4.189000000
H    -2.165000000     0.669000000     4.344000000
O    -2.810000000    -3.053000000    -7.009000000
H    -2.118000000    -2.506000000    -6.637000000
H    -3.327000000    -2.452000000    -7.546000000
O     1.771000000     1.625000000    -7.117000000
H     1.110000000     1.051000000    -7.505000000
H     2.177000000     2.063000000    -7.865000000
O     3.234000000    -3.951000000     0.970000000
H     3.175000000    -3.598000000     0.082000000
H     2.419000000    -4.438000000     1.089000000
O    -5.749000000    -3.767000000     1.624000000
H    -5.607000000    -4.530000000     1.065000000
H    -4.915000000    -3.297000000     1.606000000
O     1.018000000    -4.137000000     3.795000000
H     0.603000000    -4.985000000     3.955000000
H     0.398000000    -3.669000000     3.236000000
O     1.089000000    -3.706000000    -4.820000000
H     0.973000000    -3.235000000    -3.995000000
H     0.455000000    -3.306000000    -5.415000000
O    -4.518000000    -0.723000000    -1.730000000
H    -4.071000000    -1.264000000    -2.381000000
H    -4.372000000    -1.177000000    -0.900000000
O    -3.917000000     3.168000000    -0.009000000
H    -4.222000000     3.864000000     0.573000000
H    -4.691000000     2.625000000    -0.159000000
O     3.050000000     5.234000000    -0.228000000
H     2.961000000     4.517000000     0.400000000
H     2.840000000     4.838000000    -1.074000000
O     5.567000000    -2.420000000     1.481000000
H     4.697000000    -2.818000000     1.504000000
H     5.431000000    -1.572000000     1.057000000
