158
-3059.56008
C     0.003000000    -0.163000000     1.508000000
H     0.148000000    -0.433000000     2.551000000
C     0.245000000    -1.171000000     0.555000000
H     0.584000000    -2.137000000     0.919000000
C     0.148000000    -0.884000000    -0.810000000
H     0.467000000    -1.637000000    -1.497000000
C    -0.256000000     0.352000000    -1.267000000
H    -0.482000000     0.554000000    -2.310000000
C    -0.506000000     1.368000000    -0.257000000
H    -0.902000000     2.339000000    -0.545000000
C    -0.314000000     1.114000000     1.089000000
C    -0.372000000     2.271000000     2.086000000
O    -0.209000000     2.019000000     3.252000000
O    -0.472000000     3.428000000     1.723000000
O    -0.789000000     3.903000000     5.268000000
H    -0.761000000     3.151000000     4.676000000
H    -1.525000000     3.720000000     5.852000000
O    -1.727000000    -1.483000000    -3.626000000
H    -2.173000000    -1.491000000    -4.472000000
H    -0.947000000    -0.949000000    -3.771000000
O     1.320000000    -4.119000000     2.791000000
H     1.345000000    -3.791000000     3.690000000
H     0.408000000    -4.008000000     2.522000000
O    -0.354000000    -0.139000000     7.669000000
H     0.181000000    -0.773000000     7.192000000
H     0.276000000     0.370000000     8.179000000
O     0.639000000     1.197000000    -5.278000000
H    -0.118000000     1.776000000    -5.371000000
H     1.377000000     1.788000000    -5.134000000
O    -3.968000000    -1.529000000    -1.915000000
H    -3.054000000    -1.404000000    -2.171000000
H    -4.292000000    -2.205000000    -2.509000000
O    -1.178000000     5.743000000     3.261000000
H    -1.235000000     5.175000000     2.493000000
H    -0.907000000     5.160000000     3.970000000
O    -4.848000000     1.381000000    -2.245000000
H    -4.379000000     0.558000000    -2.109000000
H    -4.258000000     2.053000000    -1.903000000
O     3.310000000     3.322000000    -2.195000000
H     2.811000000     3.741000000    -1.494000000
H     3.312000000     2.392000000    -1.965000000
O     5.631000000    -3.731000000     0.098000000
H     6.445000000    -3.614000000     0.588000000
H     5.498000000    -4.679000000     0.076000000
O     1.863000000     0.883000000     4.220000000
H     2.504000000     1.579000000     4.365000000
H     1.076000000     1.340000000     3.921000000
O    -3.757000000     6.911000000     3.247000000
H    -3.012000000     6.677000000     3.800000000
H    -3.441000000     6.785000000     2.352000000
O    -2.882000000    -1.724000000     2.673000000
H    -2.407000000    -1.022000000     3.117000000
H    -2.209000000    -2.371000000     2.459000000
O     2.924000000     5.905000000     1.838000000
H     2.448000000     6.735000000     1.824000000
H     2.427000000     5.354000000     2.443000000
O     2.708000000     1.088000000    -0.920000000
H     2.861000000     1.058000000     0.025000000
H     1.791000000     0.834000000    -1.022000000
O     3.450000000    -0.096000000     1.741000000
H     3.274000000    -1.000000000     1.479000000
H     2.750000000     0.114000000     2.359000000
O    -4.947000000     5.227000000     0.594000000
H    -3.991000000     5.275000000     0.598000000
H    -5.222000000     5.969000000     0.055000000
O     1.677000000     4.321000000     3.379000000
H     2.225000000     3.556000000     3.555000000
H     0.855000000     3.957000000     3.051000000
O    -3.421000000     1.838000000    -5.308000000
H    -3.750000000     2.705000000    -5.545000000
H    -3.516000000     1.798000000    -4.357000000
O     2.128000000    -6.338000000     1.271000000
H     2.811000000    -6.605000000     1.886000000
H     1.790000000    -5.518000000     1.630000000
O    -1.484000000    -3.369000000     6.167000000
H    -1.923000000    -3.006000000     6.936000000
H    -0.908000000    -2.666000000     5.866000000
O     0.743000000    -1.522000000     5.525000000
H     1.170000000    -0.736000000     5.186000000
H     1.442000000    -2.175000000     5.567000000
O     0.263000000    -6.799000000    -2.838000000
H     0.123000000    -5.949000000    -2.421000000
H    -0.503000000    -6.920000000    -3.399000000
O    -4.669000000    -0.642000000     0.756000000
H    -4.509000000    -1.129000000    -0.052000000
H    -3.891000000    -0.800000000     1.290000000
O    -3.216000000     3.411000000    -1.735000000
H    -2.479000000     3.504000000    -2.339000000
H    -3.064000000     4.080000000    -1.068000000
O     2.978000000    -4.918000000    -3.439000000
H     2.656000000    -5.618000000    -4.006000000
H     3.168000000    -4.194000000    -4.035000000
O     5.508000000    -3.247000000    -2.833000000
H     4.917000000    -2.542000000    -2.570000000
H     5.844000000    -3.599000000    -2.008000000
O    -2.985000000     2.073000000     6.039000000
H    -3.344000000     1.377000000     6.590000000
H    -2.920000000     1.680000000     5.169000000
O     2.983000000    -0.130000000    -7.180000000
H     2.217000000    -0.292000000    -6.630000000
H     2.620000000     0.072000000    -8.043000000
O    -1.547000000    -4.207000000     2.246000000
H    -1.990000000    -4.807000000     1.646000000
H    -1.500000000    -4.686000000     3.073000000
O    -2.319000000    -4.277000000    -4.702000000
H    -1.482000000    -3.983000000    -5.062000000
H    -2.265000000    -4.070000000    -3.769000000
O     3.276000000    -2.595000000     1.221000000
H     3.910000000    -3.208000000     0.849000000
H     2.608000000    -3.154000000     1.619000000
O    -2.188000000    -6.012000000     0.427000000
H    -2.150000000    -5.456000000    -0.352000000
H    -2.996000000    -6.514000000     0.323000000
O    -1.411000000    -3.883000000    -1.302000000
H    -1.291000000    -2.934000000    -1.348000000
H    -0.555000000    -4.220000000    -1.037000000
O     2.860000000     3.020000000    -4.651000000
H     2.996000000     3.095000000    -3.707000000
H     3.742000000     3.031000000    -5.022000000
O     3.898000000     2.866000000     4.433000000
H     4.201000000     2.757000000     5.334000000
H     4.694000000     3.048000000     3.934000000
O     1.361000000    -4.646000000    -1.111000000
H     1.888000000    -4.472000000    -1.890000000
H     1.873000000    -5.283000000    -0.612000000
O    -0.677000000     3.834000000    -2.856000000
H    -0.694000000     3.545000000    -3.768000000
H     0.009000000     4.501000000    -2.829000000
O    -4.412000000     5.574000000    -3.394000000
H    -4.070000000     4.709000000    -3.170000000
H    -3.641000000     6.142000000    -3.404000000
O     3.434000000    -1.386000000    -2.191000000
H     3.472000000    -0.431000000    -2.132000000
H     3.391000000    -1.681000000    -1.282000000
O     1.350000000    -1.491000000    -4.253000000
H     2.253000000    -1.582000000    -3.950000000
H     1.223000000    -0.547000000    -4.346000000
O    -1.700000000     0.132000000     4.168000000
H    -1.187000000    -0.164000000     4.920000000
H    -1.170000000     0.825000000     3.774000000
O     1.385000000     3.617000000     7.586000000
H     1.202000000     3.629000000     6.646000000
H     2.112000000     4.229000000     7.697000000
O     0.996000000     6.199000000     6.182000000
H     0.603000000     5.665000000     5.492000000
H     0.308000000     6.281000000     6.842000000
O     0.157000000    -3.874000000    -4.999000000
H     0.635000000    -3.092000000    -4.723000000
H     0.744000000    -4.601000000    -4.790000000
O     2.011000000     4.189000000    -0.046000000
H     1.113000000     4.084000000     0.268000000
H     2.184000000     5.127000000     0.029000000
O     0.559000000     7.619000000     2.641000000
H    -0.091000000     8.206000000     2.256000000
H     0.089000000     6.797000000     2.777000000
O    -2.189000000     5.257000000     0.216000000
H    -1.430000000     4.717000000     0.435000000
H    -1.817000000     6.106000000    -0.024000000
