158
-3068.14304
C     0.521000000     0.182000000     1.375000000
H     0.917000000     0.315000000     2.379000000
C     0.063000000    -0.994000000     0.899000000
H    -0.043000000    -1.876000000     1.525000000
C    -0.659000000    -0.968000000    -0.335000000
H    -1.242000000    -1.840000000    -0.686000000
C    -0.560000000     0.130000000    -1.179000000
H    -0.927000000    -0.011000000    -2.192000000
C     0.035000000     1.287000000    -0.751000000
H     0.151000000     2.110000000    -1.452000000
C     0.537000000     1.325000000     0.567000000
C     1.278000000     2.591000000     1.005000000
O     1.935000000     2.503000000     1.981000000
O     1.193000000     3.644000000     0.346000000
O    -2.498000000     5.537000000     0.263000000
H    -1.708000000     5.638000000     0.795000000
H    -2.730000000     4.613000000     0.353000000
O     2.709000000     0.471000000     4.243000000
H     2.601000000     1.221000000     3.658000000
H     3.214000000     0.812000000     4.981000000
O    -1.804000000    -2.154000000    -4.314000000
H    -1.241000000    -1.833000000    -5.019000000
H    -1.228000000    -2.205000000    -3.552000000
O     1.855000000    -3.858000000     3.309000000
H     1.515000000    -3.058000000     3.709000000
H     2.153000000    -4.388000000     4.049000000
O    -4.898000000    -1.955000000    -4.437000000
H    -3.999000000    -2.035000000    -4.117000000
H    -4.821000000    -2.026000000    -5.388000000
O    -0.404000000     5.135000000     2.070000000
H     0.136000000     4.709000000     1.403000000
H    -0.806000000     4.413000000     2.551000000
O     2.657000000     7.640000000    -1.956000000
H     3.065000000     7.408000000    -1.122000000
H     3.013000000     8.504000000    -2.165000000
O    -0.372000000     1.347000000    -4.500000000
H     0.111000000     1.809000000    -5.184000000
H     0.291000000     0.825000000    -4.049000000
O     2.119000000    -3.718000000    -5.513000000
H     2.632000000    -4.429000000    -5.129000000
H     2.747000000    -3.005000000    -5.628000000
O     0.804000000     2.581000000     5.444000000
H     1.613000000     3.010000000     5.722000000
H     1.089000000     1.911000000     4.822000000
O     3.782000000     2.425000000     5.855000000
H     4.683000000     2.376000000     6.172000000
H     3.773000000     3.188000000     5.276000000
O    -5.619000000     0.226000000     1.044000000
H    -5.283000000     0.356000000     1.931000000
H    -5.428000000    -0.691000000     0.847000000
O    -1.533000000     3.880000000     5.519000000
H    -2.269000000     3.387000000     5.156000000
H    -0.774000000     3.313000000     5.383000000
O     6.223000000     1.789000000     0.785000000
H     5.615000000     2.495000000     1.001000000
H     7.085000000     2.204000000     0.789000000
O    -4.340000000     0.495000000    -1.748000000
H    -4.534000000    -0.378000000    -2.087000000
H    -4.765000000     0.519000000    -0.891000000
O    -4.011000000     5.116000000    -2.635000000
H    -3.259000000     4.526000000    -2.679000000
H    -4.675000000     4.623000000    -2.153000000
O     4.323000000     3.747000000     1.340000000
H     3.564000000     3.297000000     1.710000000
H     4.071000000     4.671000000     1.329000000
O    -4.124000000    -4.225000000     3.981000000
H    -3.237000000    -4.242000000     3.619000000
H    -3.996000000    -4.250000000     4.929000000
O    -2.745000000    -1.210000000     1.968000000
H    -2.554000000    -2.134000000     1.808000000
H    -2.478000000    -0.767000000     1.163000000
O     3.273000000     3.037000000    -1.632000000
H     3.070000000     3.010000000    -0.697000000
H     3.724000000     3.873000000    -1.755000000
O     1.272000000    -1.617000000    -2.794000000
H     1.604000000    -0.720000000    -2.760000000
H     1.047000000    -1.824000000    -1.887000000
O    -1.240000000    -5.540000000     2.905000000
H    -1.581000000    -6.322000000     2.471000000
H    -0.519000000    -5.863000000     3.447000000
O     0.426000000    -3.815000000    -0.211000000
H     1.307000000    -3.894000000     0.157000000
H     0.347000000    -4.561000000    -0.805000000
O     1.042000000     3.405000000    -5.464000000
H     0.973000000     4.078000000    -4.787000000
H     1.482000000     3.842000000    -6.193000000
O    -1.749000000     3.362000000    -3.000000000
H    -1.022000000     3.935000000    -2.754000000
H    -1.332000000     2.618000000    -3.433000000
O     2.751000000     4.066000000     3.860000000
H     2.462000000     3.449000000     3.188000000
H     2.163000000     4.815000000     3.766000000
O    -2.271000000     3.143000000     2.513000000
H    -2.207000000     2.381000000     3.089000000
H    -2.879000000     2.874000000     1.825000000
O    -5.609000000    -2.439000000    -0.096000000
H    -5.283000000    -3.115000000    -0.691000000
H    -6.265000000    -2.887000000     0.438000000
O     3.300000000    -3.515000000     1.220000000
H     2.633000000    -3.730000000     1.872000000
H     3.851000000    -2.859000000     1.648000000
O     4.583000000    -1.183000000     2.838000000
H     3.795000000    -0.725000000     3.131000000
H     5.185000000    -1.125000000     3.580000000
O    -5.646000000     0.800000000    -4.252000000
H    -5.147000000    -0.017000000    -4.219000000
H    -5.244000000     1.353000000    -3.582000000
O     2.565000000     0.891000000    -3.018000000
H     3.036000000     1.135000000    -3.815000000
H     2.704000000     1.627000000    -2.422000000
O    -1.918000000    -0.813000000     4.546000000
H    -1.975000000    -0.774000000     3.592000000
H    -1.044000000    -1.163000000     4.720000000
O    -1.709000000     6.317000000     4.129000000
H    -1.600000000     5.614000000     4.769000000
H    -1.332000000     5.967000000     3.322000000
O    -2.007000000    -3.667000000     1.085000000
H    -1.224000000    -3.548000000     0.548000000
H    -1.774000000    -4.365000000     1.697000000
O    -2.098000000    -5.588000000    -4.300000000
H    -2.150000000    -5.538000000    -3.345000000
H    -1.161000000    -5.545000000    -4.491000000
O    -4.692000000    -0.570000000     3.888000000
H    -3.911000000    -0.915000000     3.455000000
H    -5.256000000    -1.334000000     4.009000000
O     0.670000000    -4.607000000    -3.296000000
H     0.884000000    -4.122000000    -4.093000000
H     1.054000000    -4.088000000    -2.589000000
O    -2.685000000     2.741000000    -0.514000000
H    -2.313000000     2.853000000    -1.389000000
H    -3.112000000     1.885000000    -0.543000000
O    -3.723000000    -5.442000000     0.086000000
H    -3.025000000    -5.979000000    -0.291000000
H    -3.263000000    -4.767000000     0.585000000
O     3.128000000    -4.605000000    -1.250000000
H     3.702000000    -4.107000000    -1.832000000
H     3.201000000    -4.162000000    -0.405000000
O     5.051000000     5.741000000    -0.870000000
H     4.634000000     6.429000000    -0.352000000
H     5.002000000     4.961000000    -0.317000000
O     4.223000000    -2.768000000    -3.070000000
H     3.415000000    -2.287000000    -3.250000000
H     4.874000000    -2.088000000    -2.900000000
O     0.649000000    -1.572000000     4.701000000
H     1.300000000    -1.097000000     4.184000000
H     0.980000000    -1.531000000     5.598000000
O    -5.624000000    -4.788000000    -1.714000000
H    -5.384000000    -4.938000000    -2.628000000
H    -4.919000000    -5.195000000    -1.211000000
O     2.505000000     5.905000000     0.583000000
H     1.947000000     5.127000000     0.590000000
H     2.179000000     6.438000000     1.308000000
O     1.452000000     6.640000000     3.331000000
H     0.668000000     6.112000000     3.179000000
H     1.185000000     7.279000000     3.992000000
O     0.611000000     4.775000000    -2.189000000
H     0.871000000     4.280000000    -1.412000000
H     1.222000000     5.510000000    -2.220000000
