158
-3050.78973
C    -0.458000000    -0.378000000     1.343000000
H    -0.883000000    -0.791000000     2.254000000
C    -0.576000000    -1.108000000     0.195000000
H    -1.043000000    -2.088000000     0.247000000
C    -0.128000000    -0.601000000    -1.035000000
H    -0.268000000    -1.069000000    -1.988000000
C     0.445000000     0.626000000    -1.106000000
H     0.802000000     1.090000000    -2.022000000
C     0.487000000     1.383000000     0.052000000
H     0.797000000     2.425000000     0.034000000
C     0.146000000     0.856000000     1.292000000
C     0.448000000     1.445000000     2.642000000
O     0.736000000     0.800000000     3.638000000
O     0.543000000     2.671000000     2.732000000
O     2.992000000     0.093000000    -4.765000000
H     2.880000000    -0.460000000    -5.539000000
H     3.876000000     0.449000000    -4.852000000
O     3.336000000     1.414000000     4.329000000
H     2.413000000     1.162000000     4.349000000
H     3.788000000     0.642000000     3.988000000
O    -1.381000000    -0.216000000    -4.933000000
H    -1.739000000    -1.097000000    -4.827000000
H    -2.149000000     0.339000000    -5.072000000
O    -0.572000000    -6.403000000     2.466000000
H    -0.315000000    -6.775000000     1.622000000
H     0.045000000    -5.685000000     2.609000000
O     1.475000000     1.515000000     7.883000000
H     1.029000000     1.269000000     7.073000000
H     0.977000000     1.077000000     8.574000000
O     1.121000000    -6.608000000     0.246000000
H     1.422000000    -5.699000000     0.255000000
H     1.839000000    -7.095000000    -0.158000000
O     1.623000000     6.023000000     3.345000000
H     1.692000000     5.953000000     4.297000000
H     2.285000000     5.418000000     3.012000000
O    -4.409000000     0.535000000    -4.113000000
H    -4.443000000     0.032000000    -3.299000000
H    -4.276000000     1.440000000    -3.829000000
O     1.658000000     5.908000000     6.120000000
H     0.861000000     5.435000000     5.881000000
H     2.177000000     5.271000000     6.610000000
O     0.820000000     1.723000000    -4.241000000
H     1.544000000     1.100000000    -4.187000000
H     0.033000000     1.179000000    -4.232000000
O    -4.907000000     2.605000000     1.527000000
H    -4.260000000     2.880000000     2.176000000
H    -4.433000000     2.000000000     0.957000000
O     4.326000000    -3.265000000    -1.402000000
H     4.432000000    -2.370000000    -1.080000000
H     5.183000000    -3.670000000    -1.269000000
O     1.443000000    -1.873000000     4.483000000
H     0.890000000    -1.092000000     4.456000000
H     2.338000000    -1.532000000     4.485000000
O     3.171000000     4.112000000    -0.118000000
H     3.706000000     3.431000000    -0.526000000
H     3.541000000     4.214000000     0.759000000
O    -2.582000000     3.407000000    -1.561000000
H    -2.198000000     3.476000000    -0.687000000
H    -1.842000000     3.518000000    -2.157000000
O    -0.738000000     0.360000000     5.692000000
H    -0.078000000     0.450000000     5.004000000
H    -1.508000000     0.813000000     5.346000000
O     4.874000000    -0.846000000    -0.110000000
H     4.165000000    -0.675000000     0.510000000
H     4.588000000    -0.426000000    -0.922000000
O     4.069000000    -1.087000000     3.515000000
H     4.928000000    -1.359000000     3.192000000
H     3.448000000    -1.474000000     2.899000000
O    -5.050000000    -1.752000000    -5.475000000
H    -5.495000000    -1.697000000    -6.320000000
H    -4.805000000    -0.849000000    -5.273000000
O    -0.192000000    -4.377000000    -2.831000000
H    -0.844000000    -4.569000000    -3.505000000
H     0.625000000    -4.258000000    -3.315000000
O    -3.707000000    -4.506000000     2.424000000
H    -3.448000000    -3.845000000     3.066000000
H    -2.985000000    -5.133000000     2.420000000
O     1.821000000     7.239000000    -2.222000000
H     1.794000000     6.893000000    -3.114000000
H     1.408000000     6.561000000    -1.688000000
O    -2.836000000     4.173000000     3.169000000
H    -2.252000000     4.210000000     2.411000000
H    -3.364000000     4.969000000     3.103000000
O     2.127000000     2.945000000    -6.523000000
H     1.645000000     3.768000000    -6.610000000
H     1.744000000     2.524000000    -5.754000000
O    -0.646000000     3.761000000    -3.297000000
H     0.033000000     3.176000000    -3.632000000
H    -0.977000000     4.213000000    -4.073000000
O    -1.362000000     3.425000000     7.465000000
H    -0.870000000     3.274000000     6.658000000
H    -1.937000000     4.162000000     7.260000000
O    -0.219000000     4.182000000     4.908000000
H    -1.069000000     4.388000000     4.518000000
H     0.197000000     3.595000000     4.277000000
O    -2.754000000     1.547000000     4.041000000
H    -3.495000000     1.451000000     4.639000000
H    -2.707000000     2.487000000     3.867000000
O    -2.236000000    -0.767000000     7.511000000
H    -2.959000000    -0.143000000     7.458000000
H    -1.578000000    -0.423000000     6.908000000
O    -4.579000000    -2.778000000    -0.138000000
H    -4.387000000    -3.377000000     0.583000000
H    -4.178000000    -3.188000000    -0.904000000
O     1.468000000    -3.845000000    -0.479000000
H     2.274000000    -3.678000000    -0.968000000
H     0.810000000    -4.015000000    -1.153000000
O    -1.953000000    -6.678000000    -0.578000000
H    -2.365000000    -5.824000000    -0.711000000
H    -1.035000000    -6.540000000    -0.813000000
O     0.889000000     4.949000000    -0.895000000
H     1.677000000     4.663000000    -0.433000000
H     0.677000000     4.222000000    -1.480000000
O     2.713000000    -3.323000000    -3.568000000
H     3.271000000    -2.998000000    -2.862000000
H     3.074000000    -4.183000000    -3.782000000
O    -4.313000000    -0.228000000     1.671000000
H    -5.113000000    -0.564000000     2.075000000
H    -3.628000000    -0.832000000     1.957000000
O    -2.387000000    -3.228000000     5.086000000
H    -2.711000000    -4.104000000     5.295000000
H    -2.980000000    -2.636000000     5.547000000
O     3.136000000    -0.029000000    -1.847000000
H     3.021000000    -0.022000000    -2.798000000
H     2.300000000    -0.349000000    -1.507000000
O     2.520000000    -1.637000000     1.208000000
H     2.411000000    -2.481000000     0.768000000
H     1.681000000    -1.193000000     1.087000000
O    -0.977000000     4.352000000     1.289000000
H    -0.543000000     3.655000000     1.783000000
H    -0.317000000     4.645000000     0.660000000
O    -3.444000000    -4.412000000    -2.139000000
H    -2.945000000    -3.796000000    -2.676000000
H    -3.729000000    -5.089000000    -2.753000000
O     0.586000000    -0.183000000    -6.922000000
H    -0.228000000     0.184000000    -6.577000000
H     0.752000000    -0.953000000    -6.378000000
O    -4.009000000     0.315000000    -1.496000000
H    -3.090000000     0.060000000    -1.573000000
H    -4.336000000    -0.192000000    -0.753000000
O     4.806000000     2.260000000    -0.754000000
H     5.638000000     2.002000000    -1.151000000
H     4.221000000     1.522000000    -0.922000000
O     0.491000000    -3.956000000     5.883000000
H    -0.388000000    -3.730000000     5.578000000
H     1.069000000    -3.357000000     5.409000000
O     4.083000000     3.285000000     6.031000000
H     3.736000000     3.103000000     6.904000000
H     3.642000000     2.654000000     5.462000000
O     3.039000000     3.780000000     2.657000000
H     2.178000000     3.365000000     2.609000000
H     3.529000000     3.244000000     3.280000000
O    -2.832000000    -2.944000000    -5.565000000
H    -3.605000000    -2.380000000    -5.546000000
H    -3.177000000    -3.816000000    -5.755000000
O     1.399000000    -2.446000000    -5.775000000
H     1.539000000    -2.531000000    -4.832000000
H     2.065000000    -3.010000000    -6.168000000
