158
-3061.00257
C    -0.147000000    -0.953000000     1.128000000
H    -0.177000000    -1.707000000     1.910000000
C    -0.050000000    -1.299000000    -0.193000000
H     0.082000000    -2.325000000    -0.527000000
C     0.157000000    -0.288000000    -1.150000000
H     0.217000000    -0.555000000    -2.189000000
C     0.147000000     1.028000000    -0.816000000
H     0.190000000     1.791000000    -1.589000000
C     0.053000000     1.357000000     0.521000000
H     0.071000000     2.379000000     0.890000000
C    -0.139000000     0.394000000     1.502000000
C    -0.379000000     0.748000000     2.937000000
O    -0.521000000    -0.200000000     3.719000000
O    -0.532000000     1.886000000     3.353000000
O     2.323000000     3.105000000    -6.956000000
H     3.190000000     3.433000000    -6.717000000
H     2.071000000     2.540000000    -6.226000000
O     0.453000000    -2.922000000     7.083000000
H    -0.309000000    -2.363000000     7.239000000
H     1.202000000    -2.329000000     7.146000000
O    -2.911000000    -0.045000000    -0.359000000
H    -1.968000000     0.060000000    -0.235000000
H    -3.230000000     0.841000000    -0.533000000
O    -2.730000000     4.123000000     5.455000000
H    -3.180000000     4.287000000     6.283000000
H    -2.623000000     4.990000000     5.064000000
O     2.387000000     3.464000000     2.052000000
H     2.659000000     2.618000000     2.407000000
H     2.639000000     3.429000000     1.129000000
O     2.199000000    -4.249000000     0.761000000
H     2.132000000    -5.169000000     0.503000000
H     1.332000000    -4.033000000     1.104000000
O    -3.102000000     0.184000000    -3.064000000
H    -2.873000000    -0.661000000    -3.451000000
H    -3.006000000     0.048000000    -2.121000000
O     2.448000000     4.037000000    -3.376000000
H     3.145000000     4.378000000    -3.935000000
H     1.685000000     3.979000000    -3.952000000
O     0.553000000    -3.822000000    -6.216000000
H    -0.148000000    -4.454000000    -6.372000000
H     1.356000000    -4.343000000    -6.243000000
O    -3.243000000     2.620000000     3.039000000
H    -2.323000000     2.421000000     2.869000000
H    -3.230000000     3.142000000     3.842000000
O     3.047000000     1.110000000     2.978000000
H     2.926000000     1.500000000     3.843000000
H     2.808000000     0.190000000     3.094000000
O    -5.091000000    -0.378000000     1.003000000
H    -4.258000000    -0.359000000     0.533000000
H    -4.846000000    -0.503000000     1.920000000
O    -5.145000000     0.864000000    -4.768000000
H    -5.100000000     1.801000000    -4.959000000
H    -4.398000000     0.701000000    -4.192000000
O    -4.569000000     3.703000000    -2.549000000
H    -3.625000000     3.682000000    -2.704000000
H    -4.741000000     2.933000000    -2.007000000
O    -1.980000000    -2.334000000     4.050000000
H    -1.461000000    -1.531000000     4.005000000
H    -1.335000000    -3.029000000     4.179000000
O    -0.234000000    -4.293000000     1.818000000
H    -0.164000000    -4.053000000     2.742000000
H    -0.369000000    -5.241000000     1.826000000
O    -2.581000000    -2.217000000    -4.464000000
H    -3.200000000    -2.303000000    -5.189000000
H    -1.980000000    -2.954000000    -4.573000000
O    -4.000000000    -1.925000000     6.161000000
H    -3.444000000    -2.201000000     5.433000000
H    -4.688000000    -1.400000000     5.751000000
O     2.014000000    -3.026000000    -3.444000000
H     1.684000000    -2.343000000    -4.028000000
H     1.241000000    -3.545000000    -3.222000000
O     0.063000000     3.593000000    -4.385000000
H    -0.827000000     3.457000000    -4.060000000
H     0.340000000     2.730000000    -4.691000000
O    -0.032000000    -1.069000000    -5.294000000
H    -0.989000000    -1.067000000    -5.260000000
H     0.181000000    -1.674000000    -6.005000000
O     2.184000000    -1.201000000     4.244000000
H     2.653000000    -0.932000000     5.034000000
H     1.259000000    -1.081000000     4.461000000
O    -1.442000000     0.994000000     6.043000000
H    -1.484000000     1.930000000     5.844000000
H    -1.017000000     0.605000000     5.279000000
O     3.363000000     0.516000000    -3.120000000
H     4.061000000     0.828000000    -2.544000000
H     3.744000000    -0.238000000    -3.571000000
O     0.550000000     1.341000000     8.223000000
H    -0.338000000     1.698000000     8.208000000
H     0.733000000     1.117000000     7.311000000
O     0.074000000    -4.721000000    -2.739000000
H    -0.817000000    -4.686000000    -2.392000000
H     0.187000000    -5.630000000    -3.018000000
O     3.363000000    -4.007000000     3.153000000
H     3.011000000    -4.184000000     2.281000000
H     2.798000000    -3.320000000     3.505000000
O     0.110000000    -4.412000000     4.564000000
H     0.021000000    -5.311000000     4.880000000
H     0.405000000    -3.918000000     5.330000000
O    -3.468000000     5.750000000     1.915000000
H    -2.912000000     5.103000000     2.349000000
H    -4.210000000     5.244000000     1.583000000
O    -4.015000000    -0.061000000     3.635000000
H    -3.118000000    -0.309000000     3.860000000
H    -3.942000000     0.837000000     3.311000000
O     1.473000000     2.353000000     4.989000000
H     0.945000000     2.874000000     5.593000000
H     0.867000000     2.107000000     4.291000000
O    -2.571000000    -5.659000000    -2.185000000
H    -2.597000000    -6.495000000    -1.720000000
H    -3.004000000    -5.043000000    -1.595000000
O    -2.323000000    -5.641000000     4.150000000
H    -2.473000000    -4.703000000     4.032000000
H    -3.115000000    -6.055000000     3.809000000
O    -3.304000000     2.584000000    -0.244000000
H    -2.638000000     3.270000000    -0.198000000
H    -4.086000000     2.983000000     0.136000000
O    -0.437000000     4.223000000     6.820000000
H    -1.269000000     4.284000000     6.351000000
H    -0.555000000     4.778000000     7.591000000
O    -2.518000000    -3.383000000     0.739000000
H    -1.673000000    -3.798000000     0.910000000
H    -2.299000000    -2.478000000     0.515000000
O     3.109000000    -1.794000000     0.029000000
H     2.419000000    -1.373000000    -0.484000000
H     2.777000000    -2.675000000     0.200000000
O    -2.059000000     2.758000000    -2.986000000
H    -1.696000000     2.621000000    -2.111000000
H    -2.292000000     1.880000000    -3.289000000
O    -2.084000000    -1.116000000     8.069000000
H    -1.847000000    -0.341000000     7.559000000
H    -2.797000000    -1.519000000     7.574000000
O     3.557000000    -1.749000000    -5.685000000
H     3.109000000    -2.539000000    -5.384000000
H     3.969000000    -2.007000000    -6.510000000
O    -1.247000000     4.312000000    -0.249000000
H    -0.360000000     4.326000000    -0.609000000
H    -1.124000000     4.423000000     0.694000000
O     1.089000000     5.240000000    -1.429000000
H     1.499000000     4.689000000    -2.095000000
H     1.515000000     6.092000000    -1.527000000
O     3.276000000     3.255000000    -0.772000000
H     3.543000000     2.357000000    -0.964000000
H     2.961000000     3.595000000    -1.610000000
O    -4.344000000    -3.413000000     3.516000000
H    -4.924000000    -3.002000000     2.875000000
H    -3.601000000    -2.812000000     3.585000000
O     0.061000000     4.472000000     2.659000000
H     0.908000000     4.263000000     2.265000000
H    -0.170000000     3.689000000     3.159000000
O     1.317000000     1.291000000    -4.576000000
H     2.035000000     0.863000000    -4.108000000
H     0.878000000     0.580000000    -5.041000000
O     2.383000000    -0.347000000    -7.842000000
H     3.158000000    -0.899000000    -7.949000000
H     2.290000000    -0.246000000    -6.895000000
O     0.306000000     7.191000000     1.891000000
H    -0.431000000     7.203000000     1.280000000
H     0.364000000     6.279000000     2.178000000
