158
-3001.99058
C    -1.022000000     0.756000000     0.797000000
H    -1.731000000     1.326000000     1.393000000
C    -1.324000000    -0.314000000     0.004000000
H    -2.333000000    -0.699000000    -0.123000000
C    -0.307000000    -0.934000000    -0.758000000
H    -0.525000000    -1.783000000    -1.359000000
C     1.005000000    -0.425000000    -0.741000000
H     1.835000000    -0.858000000    -1.293000000
C     1.301000000     0.657000000     0.063000000
H     2.350000000     0.927000000     0.151000000
C     0.286000000     1.179000000     0.897000000
C     0.532000000     2.268000000     1.970000000
O    -0.380000000     3.071000000     2.128000000
O     1.653000000     2.375000000     2.560000000
O     2.606000000     0.186000000     3.471000000
H     2.764000000    -0.576000000     2.914000000
H     2.353000000     0.879000000     2.862000000
O    -0.771000000     1.821000000    -2.035000000
H    -0.228000000     1.366000000    -1.391000000
H    -1.033000000     1.138000000    -2.652000000
O    -4.834000000     0.257000000    -3.700000000
H    -5.352000000    -0.496000000    -3.415000000
H    -5.300000000     0.592000000    -4.466000000
O    -0.399000000     5.181000000     5.183000000
H    -0.876000000     4.452000000     4.787000000
H    -0.805000000     5.293000000     6.043000000
O    -7.188000000    -2.714000000    -0.341000000
H    -6.317000000    -2.559000000     0.024000000
H    -7.265000000    -3.667000000    -0.381000000
O     5.788000000    -1.829000000    -1.510000000
H     4.919000000    -2.215000000    -1.620000000
H     5.867000000    -1.682000000    -0.567000000
O     3.259000000     6.343000000     2.549000000
H     2.708000000     6.930000000     2.031000000
H     2.960000000     6.466000000     3.450000000
O     5.581000000     2.394000000     0.063000000
H     4.684000000     2.679000000     0.239000000
H     5.538000000     1.989000000    -0.803000000
O    -0.772000000     6.505000000     2.437000000
H    -1.635000000     6.841000000     2.681000000
H    -0.502000000     5.972000000     3.185000000
O    -1.158000000    -2.478000000    -4.014000000
H    -0.359000000    -2.900000000    -3.699000000
H    -1.190000000    -2.689000000    -4.947000000
O     0.465000000    -6.238000000     1.430000000
H     1.378000000    -6.188000000     1.145000000
H     0.314000000    -7.170000000     1.586000000
O    -4.901000000     4.382000000     0.732000000
H    -4.286000000     3.826000000     0.255000000
H    -4.446000000     4.599000000     1.546000000
O    -3.174000000    -3.126000000    -2.284000000
H    -2.714000000    -3.006000000    -1.453000000
H    -2.517000000    -2.933000000    -2.952000000
O    -0.295000000    -4.762000000    -1.084000000
H     0.353000000    -4.600000000    -1.769000000
H     0.199000000    -5.183000000    -0.381000000
O    -2.137000000    -6.306000000     2.292000000
H    -2.155000000    -7.244000000     2.482000000
H    -1.226000000    -6.128000000     2.057000000
O    -1.691000000    -3.159000000    -6.522000000
H    -1.507000000    -2.511000000    -7.202000000
H    -2.211000000    -3.829000000    -6.964000000
O    -1.029000000    -2.020000000     2.936000000
H    -0.404000000    -2.745000000     2.916000000
H    -1.229000000    -1.851000000     2.015000000
O    -3.236000000     1.565000000     5.061000000
H    -2.602000000     1.281000000     5.719000000
H    -2.707000000     1.982000000     4.381000000
O    -5.158000000    -3.022000000     3.545000000
H    -5.161000000    -2.796000000     2.615000000
H    -4.591000000    -2.365000000     3.949000000
O    -5.050000000    -3.059000000    -4.492000000
H    -5.874000000    -3.010000000    -4.007000000
H    -4.378000000    -3.143000000    -3.815000000
O     3.814000000    -3.478000000    -0.246000000
H     3.789000000    -2.966000000     0.562000000
H     3.454000000    -4.330000000    -0.001000000
O     4.250000000    -1.150000000     1.735000000
H     4.210000000    -1.923000000     2.297000000
H     5.173000000    -0.899000000     1.737000000
O     5.016000000     3.804000000     4.209000000
H     5.660000000     3.203000000     3.835000000
H     4.297000000     3.239000000     4.492000000
O     0.089000000    -0.059000000     4.827000000
H     0.723000000     0.519000000     4.403000000
H    -0.078000000    -0.746000000     4.182000000
O     1.731000000     1.614000000     7.525000000
H     1.527000000     2.055000000     6.700000000
H     2.617000000     1.274000000     7.400000000
O     1.333000000    -1.423000000    -6.565000000
H     1.218000000    -1.992000000    -7.327000000
H     1.950000000    -1.894000000    -6.006000000
O    -5.304000000    -4.582000000    -1.756000000
H    -4.724000000    -3.830000000    -1.878000000
H    -5.177000000    -4.836000000    -0.842000000
O    -2.713000000    -6.499000000    -2.219000000
H    -3.502000000    -5.995000000    -2.020000000
H    -1.993000000    -5.888000000    -2.059000000
O    -2.372000000     3.777000000     3.852000000
H    -1.624000000     3.726000000     3.257000000
H    -2.999000000     4.343000000     3.401000000
O     1.080000000    -4.157000000    -3.351000000
H     1.919000000    -3.706000000    -3.251000000
H     1.237000000    -4.805000000    -4.038000000
O    -1.435000000     5.114000000     0.298000000
H    -1.299000000     4.329000000     0.828000000
H    -1.424000000     5.834000000     0.929000000
O    -2.117000000     0.199000000    -3.882000000
H    -1.734000000    -0.674000000    -3.793000000
H    -3.041000000     0.078000000    -3.667000000
O    -3.175000000     2.927000000    -0.749000000
H    -3.380000000     3.018000000    -1.679000000
H    -2.230000000     3.069000000    -0.697000000
O     1.843000000     3.458000000     5.111000000
H     1.361000000     4.281000000     5.191000000
H     1.760000000     3.220000000     4.188000000
O     3.561000000    -3.693000000    -2.796000000
H     3.487000000    -3.553000000    -1.852000000
H     3.581000000    -4.645000000    -2.896000000
O     2.052000000     1.018000000    -4.034000000
H     1.468000000     0.495000000    -3.484000000
H     2.683000000     0.387000000    -4.381000000
O    -6.357000000     0.334000000     3.160000000
H    -5.564000000     0.789000000     2.875000000
H    -6.905000000     0.293000000     2.377000000
O     4.113000000     2.625000000    -2.688000000
H     3.578000000     3.352000000    -2.369000000
H     3.555000000     2.178000000    -3.325000000
O    -3.129000000    -1.811000000     4.766000000
H    -2.448000000    -2.026000000     4.129000000
H    -2.988000000    -0.886000000     4.966000000
O    -2.449000000    -3.669000000     0.263000000
H    -2.772000000    -4.504000000     0.603000000
H    -1.695000000    -3.905000000    -0.276000000
O     6.275000000     1.800000000     2.739000000
H     6.101000000     1.996000000     1.818000000
H     7.127000000     1.364000000     2.735000000
O     3.469000000    -0.058000000     5.956000000
H     4.399000000    -0.284000000     5.947000000
H     3.229000000     0.004000000     5.031000000
O    -0.659000000     4.845000000    -2.171000000
H    -0.871000000     4.867000000    -1.238000000
H    -0.971000000     3.990000000    -2.468000000
O     3.522000000     3.994000000     1.326000000
H     3.372000000     4.761000000     1.878000000
H     2.896000000     3.344000000     1.643000000
O     2.661000000     5.146000000    -1.564000000
H     1.823000000     5.209000000    -1.106000000
H     3.210000000     5.813000000    -1.151000000
O    -4.432000000     0.396000000    -0.183000000
H    -3.844000000     1.051000000    -0.558000000
H    -5.239000000     0.480000000    -0.691000000
O     3.701000000    -1.748000000    -4.812000000
H     3.818000000    -2.552000000    -4.305000000
H     4.523000000    -1.646000000    -5.291000000
O    -4.577000000    -2.032000000     0.967000000
H    -4.489000000    -1.212000000     0.482000000
H    -3.806000000    -2.542000000     0.718000000
