158
-3075.06310
C     1.328000000    -0.167000000    -0.757000000
H     2.306000000    -0.262000000    -1.221000000
C     1.186000000     0.049000000     0.608000000
H     2.091000000     0.135000000     1.205000000
C    -0.090000000     0.172000000     1.191000000
H    -0.262000000     0.257000000     2.236000000
C    -1.204000000     0.003000000     0.405000000
H    -2.196000000     0.074000000     0.844000000
C    -1.083000000    -0.007000000    -0.997000000
H    -2.034000000    -0.029000000    -1.523000000
C     0.164000000    -0.016000000    -1.561000000
C     0.278000000    -0.217000000    -2.996000000
O    -0.772000000    -0.257000000    -3.651000000
O     1.360000000    -0.347000000    -3.521000000
O    -0.861000000     3.155000000    -1.272000000
H    -0.809000000     2.203000000    -1.352000000
H    -1.547000000     3.410000000    -1.889000000
O     0.372000000     4.521000000    -3.488000000
H    -0.218000000     4.259000000    -2.782000000
H     1.054000000     3.849000000    -3.492000000
O    -1.628000000     3.118000000     1.301000000
H    -1.386000000     3.427000000     0.428000000
H    -1.206000000     3.735000000     1.899000000
O     4.267000000    -4.237000000     0.844000000
H     4.415000000    -3.313000000     0.644000000
H     5.087000000    -4.530000000     1.242000000
O    -2.392000000    -2.671000000    -5.570000000
H    -1.831000000    -2.103000000    -6.097000000
H    -2.554000000    -3.433000000    -6.127000000
O     5.387000000    -2.356000000     4.040000000
H     5.562000000    -1.756000000     3.315000000
H     5.855000000    -3.158000000     3.806000000
O    -5.275000000    -4.107000000     0.502000000
H    -5.056000000    -5.034000000     0.589000000
H    -4.577000000    -3.746000000    -0.045000000
O     2.543000000     2.549000000     3.843000000
H     2.857000000     2.032000000     3.101000000
H     1.807000000     2.045000000     4.191000000
O    -1.782000000    -4.318000000    -2.940000000
H    -0.918000000    -4.730000000    -2.918000000
H    -1.611000000    -3.418000000    -3.218000000
O    -2.070000000    -5.544000000     3.069000000
H    -2.628000000    -5.478000000     2.294000000
H    -1.891000000    -4.636000000     3.313000000
O     4.134000000     2.200000000     5.951000000
H     3.728000000     2.154000000     5.085000000
H     4.028000000     1.320000000     6.312000000
O    -2.996000000     2.730000000     6.350000000
H    -3.190000000     3.200000000     5.539000000
H    -3.753000000     2.160000000     6.483000000
O    -3.318000000    -0.947000000    -3.896000000
H    -2.483000000    -0.634000000    -3.547000000
H    -3.076000000    -1.623000000    -4.528000000
O    -5.643000000     0.492000000    -3.862000000
H    -4.784000000     0.070000000    -3.878000000
H    -5.819000000     0.713000000    -4.776000000
O     1.853000000     4.951000000     3.291000000
H     2.187000000     5.211000000     2.432000000
H     2.180000000     4.060000000     3.415000000
O    -0.413000000    -0.999000000    -6.473000000
H    -0.148000000    -0.814000000    -5.572000000
H    -0.203000000    -0.199000000    -6.954000000
O    -2.131000000    -2.443000000     3.002000000
H    -3.035000000    -2.160000000     2.868000000
H    -1.735000000    -2.401000000     2.132000000
O     1.599000000    -2.373000000    -8.351000000
H     0.692000000    -2.455000000    -8.057000000
H     2.109000000    -2.317000000    -7.543000000
O    -0.595000000    -2.837000000     0.720000000
H    -0.433000000    -2.017000000     0.252000000
H     0.239000000    -3.304000000     0.680000000
O     1.629000000    -4.305000000     1.560000000
H     1.519000000    -4.466000000     2.497000000
H     2.569000000    -4.404000000     1.408000000
O    -1.221000000    -0.861000000     5.276000000
H    -2.035000000    -1.060000000     5.739000000
H    -1.329000000    -1.269000000     4.417000000
O    -2.643000000     1.222000000     2.821000000
H    -2.682000000     1.884000000     3.511000000
H    -2.251000000     1.675000000     2.075000000
O     2.274000000     2.218000000    -3.420000000
H     2.058000000     1.293000000    -3.308000000
H     2.335000000     2.338000000    -4.368000000
O    -0.970000000     5.060000000     3.090000000
H    -0.932000000     5.997000000     3.286000000
H    -0.054000000     4.782000000     3.074000000
O     6.112000000     0.043000000     2.777000000
H     6.973000000     0.343000000     2.487000000
H     5.515000000     0.322000000     2.083000000
O     2.231000000    -4.436000000    -5.976000000
H     1.646000000    -4.217000000    -5.250000000
H     3.032000000    -3.946000000    -5.794000000
O    -2.739000000     3.297000000    -3.101000000
H    -3.140000000     2.563000000    -2.635000000
H    -3.453000000     3.924000000    -3.220000000
O    -3.575000000    -2.319000000     5.738000000
H    -3.620000000    -3.240000000     5.484000000
H    -4.376000000    -2.170000000     6.241000000
O     3.905000000     1.886000000     1.578000000
H     4.603000000     2.520000000     1.744000000
H     3.444000000     2.232000000     0.815000000
O     2.506000000     2.764000000    -0.680000000
H     1.625000000     2.413000000    -0.555000000
H     2.603000000     2.836000000    -1.630000000
O    -4.031000000     2.507000000    -0.846000000
H    -4.558000000     1.715000000    -0.745000000
H    -3.326000000     2.408000000    -0.205000000
O    -2.661000000    -3.894000000    -0.470000000
H    -2.206000000    -4.078000000    -1.291000000
H    -2.006000000    -3.453000000     0.072000000
O    -0.016000000     1.816000000    -7.420000000
H    -0.607000000     1.645000000    -6.687000000
H     0.047000000     2.770000000    -7.459000000
O    -1.778000000     1.649000000    -5.364000000
H    -2.270000000     2.230000000    -4.784000000
H    -1.336000000     1.039000000    -4.773000000
O     6.256000000     0.743000000    -0.308000000
H     6.068000000     1.158000000    -1.149000000
H     6.679000000     1.429000000     0.208000000
O     0.105000000     1.520000000     4.462000000
H    -0.380000000     1.551000000     3.637000000
H    -0.220000000     0.735000000     4.902000000
O    -4.305000000    -1.015000000     1.962000000
H    -3.814000000    -0.210000000     2.126000000
H    -5.137000000    -0.885000000     2.417000000
O     3.637000000    -2.064000000    -2.977000000
H     4.294000000    -2.251000000    -3.647000000
H     2.944000000    -1.597000000    -3.445000000
O     2.584000000     1.942000000    -6.397000000
H     1.867000000     2.119000000    -7.007000000
H     3.000000000     1.151000000    -6.739000000
O    -5.144000000     0.796000000     6.241000000
H    -4.586000000     0.147000000     5.812000000
H    -5.920000000     0.851000000     5.682000000
O    -3.172000000     3.955000000     3.901000000
H    -3.867000000     4.187000000     3.284000000
H    -2.375000000     4.313000000     3.508000000
O     0.831000000    -1.322000000     6.996000000
H     1.515000000    -0.814000000     6.559000000
H     0.024000000    -1.075000000     6.546000000
O    -0.395000000     2.304000000     6.967000000
H     0.207000000     2.102000000     6.251000000
H    -1.248000000     2.400000000     6.544000000
O     1.888000000    -3.970000000    -1.374000000
H     2.328000000    -3.283000000    -1.875000000
H     2.354000000    -3.991000000    -0.538000000
O     4.624000000    -2.601000000    -5.526000000
H     5.396000000    -2.068000000    -5.718000000
H     4.773000000    -3.418000000    -6.002000000
O     0.303000000    -2.861000000    -4.428000000
H    -0.434000000    -2.682000000    -5.012000000
H     0.677000000    -2.000000000    -4.242000000
O    -4.960000000    -0.020000000    -0.464000000
H    -5.192000000    -0.702000000    -1.095000000
H    -5.026000000    -0.450000000     0.389000000
O     4.469000000    -1.986000000    -0.348000000
H     4.323000000    -2.021000000    -1.293000000
H     4.789000000    -1.098000000    -0.188000000
