158
-3014.76740
C    -1.086000000     0.219000000     0.988000000
H    -1.884000000     0.662000000     1.579000000
C    -1.288000000     0.068000000    -0.405000000
H    -2.286000000     0.178000000    -0.822000000
C    -0.176000000    -0.158000000    -1.197000000
H    -0.156000000    -0.172000000    -2.350000000
C     1.073000000    -0.339000000    -0.627000000
H     1.895000000    -0.588000000    -1.293000000
C     1.281000000    -0.176000000     0.723000000
H     2.258000000    -0.468000000     1.100000000
C     0.210000000     0.203000000     1.511000000
C     0.446000000     0.518000000     2.978000000
O    -0.474000000     0.327000000     3.773000000
O     1.595000000     0.913000000     3.395000000
O     3.794000000    -2.550000000    -2.593000000
H     4.121000000    -3.439000000    -2.458000000
H     3.819000000    -2.427000000    -3.542000000
O    -4.197000000     3.894000000    -3.416000000
H    -3.906000000     3.695000000    -2.526000000
H    -4.000000000     3.102000000    -3.916000000
O    -1.397000000    -2.722000000     5.631000000
H    -1.780000000    -3.374000000     6.218000000
H    -0.461000000    -2.742000000     5.829000000
O     5.475000000    -2.470000000     1.074000000
H     6.423000000    -2.487000000     0.943000000
H     5.189000000    -1.659000000     0.654000000
O    -0.655000000     3.093000000     6.722000000
H    -0.987000000     3.210000000     5.832000000
H    -1.029000000     2.260000000     7.010000000
O     5.540000000     1.654000000    -3.087000000
H     6.488000000     1.780000000    -3.043000000
H     5.230000000     1.863000000    -2.206000000
O     1.672000000     5.098000000    -4.570000000
H     0.768000000     4.815000000    -4.432000000
H     2.076000000     4.379000000    -5.056000000
O     0.047000000     3.010000000    -0.550000000
H    -0.250000000     2.108000000    -0.435000000
H     0.450000000     3.021000000    -1.419000000
O    -3.669000000    -3.544000000    -4.994000000
H    -2.837000000    -4.015000000    -4.940000000
H    -4.137000000    -3.965000000    -5.715000000
O    -1.718000000     2.724000000     4.199000000
H    -1.174000000     1.939000000     4.136000000
H    -2.280000000     2.689000000     3.425000000
O    -3.762000000    -4.034000000    -0.540000000
H    -3.857000000    -3.142000000    -0.874000000
H    -3.026000000    -4.398000000    -1.034000000
O     1.331000000    -3.461000000    -1.605000000
H     1.925000000    -4.211000000    -1.621000000
H     1.857000000    -2.731000000    -1.930000000
O    -1.616000000    -2.478000000    -2.611000000
H    -1.340000000    -3.358000000    -2.354000000
H    -1.355000000    -1.922000000    -1.877000000
O     3.999000000     1.196000000     3.042000000
H     4.164000000     2.034000000     2.610000000
H     3.050000000     1.175000000     3.168000000
O     0.030000000    -4.679000000     3.615000000
H     0.257000000    -4.525000000     4.532000000
H    -0.757000000    -4.154000000     3.471000000
O    -2.527000000    -1.416000000     3.441000000
H    -2.075000000    -2.100000000     3.934000000
H    -1.907000000    -0.686000000     3.420000000
O     3.632000000    -1.688000000     3.414000000
H     3.644000000    -0.747000000     3.590000000
H     3.661000000    -1.753000000     2.459000000
O     1.823000000     0.142000000     6.017000000
H     2.735000000    -0.111000000     6.156000000
H     1.765000000     0.323000000     5.079000000
O    -0.203000000    -3.046000000     0.593000000
H     0.029000000    -3.159000000    -0.329000000
H     0.191000000    -2.209000000     0.838000000
O     1.263000000     1.983000000    -5.927000000
H     2.212000000     2.024000000    -5.815000000
H     1.125000000     2.124000000    -6.864000000
O     3.272000000    -4.067000000     4.459000000
H     3.536000000    -3.993000000     5.376000000
H     3.367000000    -3.181000000     4.109000000
O    -1.469000000     2.029000000    -6.221000000
H    -0.761000000     2.093000000    -5.579000000
H    -1.407000000     1.135000000    -6.557000000
O    -4.142000000     3.732000000     5.280000000
H    -3.793000000     4.205000000     6.036000000
H    -3.369000000     3.500000000     4.766000000
O    -1.762000000    -5.391000000    -1.663000000
H    -1.797000000    -6.340000000    -1.778000000
H    -0.852000000    -5.160000000    -1.851000000
O    -1.597000000    -5.271000000    -5.021000000
H    -0.753000000    -4.827000000    -4.934000000
H    -1.380000000    -6.132000000    -5.377000000
O    -4.551000000    -0.045000000     2.149000000
H    -3.888000000    -0.582000000     2.582000000
H    -4.153000000     0.823000000     2.088000000
O     5.828000000     1.986000000     4.975000000
H     6.592000000     1.865000000     4.411000000
H     5.111000000     1.566000000     4.500000000
O    -5.997000000     1.736000000    -0.596000000
H    -5.284000000     1.183000000    -0.917000000
H    -5.583000000     2.580000000    -0.417000000
O     4.861000000     1.627000000    -0.404000000
H     5.674000000     1.812000000     0.068000000
H     4.178000000     2.035000000     0.128000000
O    -5.286000000    -3.367000000     2.328000000
H    -5.014000000    -2.485000000     2.077000000
H    -4.465000000    -3.849000000     2.437000000
O     0.217000000    -3.177000000    -5.260000000
H     0.956000000    -2.599000000    -5.074000000
H    -0.553000000    -2.677000000    -4.988000000
O     3.753000000     4.329000000     2.546000000
H     3.311000000     4.473000000     3.383000000
H     4.135000000     5.179000000     2.328000000
O    -1.747000000    -0.938000000     8.876000000
H    -2.454000000    -1.433000000     8.462000000
H    -1.256000000    -0.565000000     8.144000000
O     6.918000000    -1.570000000     3.719000000
H     6.216000000    -1.491000000     3.073000000
H     6.470000000    -1.545000000     4.564000000
O    -2.873000000     3.399000000    -0.754000000
H    -2.882000000     4.334000000    -0.552000000
H    -1.974000000     3.222000000    -1.031000000
O    -4.629000000    -1.467000000    -0.237000000
H    -5.067000000    -2.280000000     0.017000000
H    -4.769000000    -0.878000000     0.505000000
O    -3.023000000    -1.064000000    -4.732000000
H    -3.421000000    -1.920000000    -4.894000000
H    -2.458000000    -1.202000000    -3.973000000
O     2.824000000     3.966000000     0.034000000
H     1.926000000     3.640000000     0.100000000
H     3.103000000     4.086000000     0.942000000
O     1.858000000     3.740000000     4.706000000
H     2.410000000     3.463000000     5.437000000
H     1.444000000     2.933000000     4.399000000
O    -0.746000000     0.316000000     6.533000000
H    -0.959000000     0.324000000     5.600000000
H     0.209000000     0.265000000     6.561000000
O     3.718000000    -2.121000000    -5.198000000
H     3.618000000    -2.780000000    -5.885000000
H     4.263000000    -1.442000000    -5.596000000
O    -4.940000000    -1.606000000     5.364000000
H    -4.053000000    -1.524000000     5.013000000
H    -5.314000000    -0.729000000     5.278000000
O     1.084000000     2.244000000    -2.920000000
H     1.878000000     1.728000000    -2.783000000
H     1.013000000     2.328000000    -3.870000000
O     3.141000000     0.601000000    -3.687000000
H     3.204000000    -0.353000000    -3.743000000
H     4.050000000     0.900000000    -3.667000000
O    -3.591000000     2.904000000     1.919000000
H    -3.138000000     2.847000000     1.078000000
H    -4.392000000     3.391000000     1.727000000
O     2.787000000     2.568000000     6.825000000
H     3.740000000     2.641000000     6.860000000
H     2.616000000     1.627000000     6.882000000
O    -3.721000000     1.624000000    -4.879000000
H    -3.064000000     1.926000000    -5.507000000
H    -3.632000000     0.671000000    -4.880000000
O    -5.214000000    -0.387000000    -2.800000000
H    -4.621000000    -0.390000000    -3.551000000
H    -5.002000000    -1.189000000    -2.324000000
