158
-3031.88603
C    -1.048000000     0.472000000     0.960000000
H    -1.828000000     0.931000000     1.562000000
C    -1.011000000     0.813000000    -0.395000000
H    -1.801000000     1.389000000    -0.870000000
C     0.024000000     0.214000000    -1.199000000
H     0.113000000     0.345000000    -2.265000000
C     1.021000000    -0.508000000    -0.602000000
H     1.759000000    -0.942000000    -1.273000000
C     1.069000000    -0.661000000     0.766000000
H     1.937000000    -1.187000000     1.155000000
C     0.001000000    -0.265000000     1.540000000
C     0.026000000    -0.506000000     2.987000000
O    -0.669000000     0.132000000     3.733000000
O     0.759000000    -1.354000000     3.496000000
O    -1.477000000     4.059000000     7.494000000
H    -1.123000000     3.484000000     6.815000000
H    -2.154000000     3.535000000     7.922000000
O     0.194000000    -3.490000000    -1.823000000
H    -0.693000000    -3.508000000    -1.464000000
H     0.662000000    -2.861000000    -1.274000000
O    -2.349000000     5.901000000    -2.863000000
H    -2.627000000     5.992000000    -1.952000000
H    -2.041000000     4.997000000    -2.930000000
O    -0.354000000    -1.191000000    -4.803000000
H    -0.355000000    -2.091000000    -4.479000000
H    -0.631000000    -1.264000000    -5.716000000
O     2.173000000    -0.155000000    -4.857000000
H     2.220000000    -0.064000000    -5.809000000
H     1.275000000    -0.440000000    -4.688000000
O     3.292000000    -4.441000000    -1.205000000
H     2.596000000    -4.797000000    -1.757000000
H     3.653000000    -3.715000000    -1.714000000
O    -3.874000000     1.824000000     7.348000000
H    -3.277000000     1.136000000     7.056000000
H    -3.662000000     1.950000000     8.273000000
O     5.514000000    -0.493000000    -1.783000000
H     5.862000000    -0.915000000    -0.997000000
H     6.265000000    -0.429000000    -2.373000000
O    -2.651000000     0.285000000    -3.538000000
H    -2.921000000     0.677000000    -4.368000000
H    -1.880000000    -0.238000000    -3.759000000
O     3.717000000     2.304000000     0.221000000
H     3.201000000     1.929000000    -0.492000000
H     3.819000000     3.226000000    -0.016000000
O    -2.053000000     2.283000000     3.961000000
H    -2.824000000     1.726000000     4.067000000
H    -1.322000000     1.738000000     4.250000000
O     3.576000000    -3.572000000     6.315000000
H     4.130000000    -3.557000000     5.535000000
H     2.682000000    -3.524000000     5.975000000
O    -2.786000000    -3.512000000     3.652000000
H    -2.055000000    -3.733000000     3.075000000
H    -2.670000000    -4.080000000     4.414000000
O    -0.582000000    -3.570000000     2.075000000
H    -0.072000000    -2.812000000     2.362000000
H    -0.078000000    -3.935000000     1.348000000
O     1.181000000    -3.688000000     4.988000000
H     0.283000000    -3.786000000     5.306000000
H     1.166000000    -2.880000000     4.476000000
O     1.063000000    -5.040000000     0.776000000
H     1.748000000    -4.852000000     0.134000000
H     1.513000000    -5.519000000     1.472000000
O    -0.349000000    -4.447000000    -4.366000000
H    -0.262000000    -4.134000000    -3.466000000
H    -0.875000000    -5.243000000    -4.293000000
O     5.150000000    -0.421000000     5.636000000
H     5.736000000    -0.852000000     6.258000000
H     4.745000000    -1.141000000     5.151000000
O    -2.679000000    -4.464000000    -2.249000000
H    -3.271000000    -3.711000000    -2.265000000
H    -3.181000000    -5.172000000    -2.653000000
O     1.763000000     4.687000000     2.381000000
H     1.370000000     4.130000000     1.709000000
H     2.109000000     4.073000000     3.029000000
O    -1.707000000    -1.774000000    -7.333000000
H    -1.730000000    -1.706000000    -8.287000000
H    -2.346000000    -2.456000000    -7.126000000
O     3.253000000     1.375000000    -2.677000000
H     3.057000000     1.005000000    -3.538000000
H     4.118000000     1.027000000    -2.458000000
O    -4.554000000     2.857000000     0.696000000
H    -4.420000000     2.052000000     0.196000000
H    -4.504000000     2.582000000     1.611000000
O     5.868000000    -0.401000000     1.306000000
H     6.578000000    -0.951000000     1.638000000
H     5.236000000    -1.021000000     0.942000000
O     3.519000000    -1.105000000     3.426000000
H     3.834000000    -1.576000000     2.654000000
H     2.571000000    -1.238000000     3.417000000
O     3.744000000     4.475000000    -3.471000000
H     4.561000000     4.054000000    -3.740000000
H     3.123000000     3.754000000    -3.375000000
O     0.500000000     2.188000000     6.608000000
H     0.848000000     2.296000000     5.723000000
H     0.957000000     2.851000000     7.127000000
O    -2.452000000     4.391000000    -0.343000000
H    -1.678000000     4.099000000     0.138000000
H    -3.116000000     3.728000000    -0.153000000
O    -5.357000000    -0.520000000     0.820000000
H    -5.085000000    -1.353000000     1.206000000
H    -4.793000000    -0.416000000     0.054000000
O    -4.348000000    -2.346000000    -2.504000000
H    -5.158000000    -1.919000000    -2.226000000
H    -4.125000000    -1.919000000    -3.332000000
O     4.164000000    -2.606000000     0.635000000
H     5.023000000    -2.843000000     0.285000000
H     3.564000000    -3.242000000     0.247000000
O     0.130000000    -3.073000000     8.047000000
H    -0.769000000    -3.336000000     8.239000000
H     0.041000000    -2.365000000     7.408000000
O    -3.739000000     4.406000000     5.186000000
H    -3.319000000     3.552000000     5.286000000
H    -3.149000000     4.897000000     4.614000000
O     2.493000000     3.053000000     4.695000000
H     2.936000000     2.522000000     4.033000000
H     3.181000000     3.279000000     5.320000000
O    -2.345000000    -4.220000000    -6.492000000
H    -1.698000000    -4.097000000    -5.798000000
H    -2.035000000    -4.987000000    -6.975000000
O    -3.416000000     3.254000000    -5.271000000
H    -3.914000000     2.437000000    -5.251000000
H    -3.637000000     3.650000000    -6.114000000
O    -1.230000000     3.233000000    -3.075000000
H    -1.628000000     2.399000000    -2.827000000
H    -1.431000000     3.328000000    -4.006000000
O     2.331000000    -4.797000000    -3.898000000
H     2.529000000    -3.947000000    -4.290000000
H     1.460000000    -5.017000000    -4.229000000
O     0.142000000    -0.838000000     6.348000000
H     0.339000000     0.098000000     6.378000000
H     0.485000000    -1.128000000     5.502000000
O    -2.809000000    -0.872000000     4.627000000
H    -1.936000000    -0.706000000     4.271000000
H    -2.972000000    -1.797000000     4.440000000
O     3.923000000     1.534000000     2.951000000
H     3.777000000     1.771000000     2.035000000
H     4.006000000     0.581000000     2.941000000
O     4.018000000    -2.470000000    -2.879000000
H     4.560000000    -1.782000000    -2.493000000
H     3.754000000    -2.119000000    -3.730000000
O    -1.308000000     4.708000000     3.076000000
H    -0.411000000     4.679000000     2.744000000
H    -1.551000000     3.790000000     3.192000000
O     0.015000000     3.849000000     0.462000000
H     0.324000000     4.702000000     0.156000000
H     0.242000000     3.245000000    -0.245000000
O     1.323000000     3.109000000    -1.881000000
H     1.538000000     2.177000000    -1.907000000
H     0.526000000     3.186000000    -2.406000000
O    -5.009000000     1.174000000     3.155000000
H    -4.794000000     0.477000000     3.775000000
H    -5.516000000     0.737000000     2.471000000
O    -1.773000000     0.122000000     8.053000000
H    -1.185000000     0.488000000     8.714000000
H    -1.198000000    -0.371000000     7.468000000
O    -4.333000000     0.961000000    -1.484000000
H    -5.164000000     0.938000000    -1.959000000
H    -3.673000000     0.749000000    -2.144000000
