158
-3016.25131
C    -0.946000000     0.566000000     1.019000000
H    -1.663000000     1.039000000     1.686000000
C    -1.266000000    -0.135000000    -0.098000000
H    -2.309000000    -0.297000000    -0.358000000
C    -0.347000000    -0.536000000    -1.010000000
H    -0.715000000    -1.029000000    -1.934000000
C     0.955000000    -0.481000000    -0.692000000
H     1.633000000    -0.888000000    -1.438000000
C     1.394000000     0.240000000     0.424000000
H     2.455000000     0.229000000     0.659000000
C     0.430000000     0.790000000     1.254000000
C     0.829000000     1.598000000     2.517000000
O     0.090000000     1.675000000     3.494000000
O     1.914000000     2.137000000     2.547000000
O     2.488000000     6.187000000     2.065000000
H     2.414000000     5.537000000     2.764000000
H     3.358000000     6.042000000     1.694000000
O     2.568000000    -1.773000000    -5.054000000
H     2.147000000    -0.921000000    -4.935000000
H     3.496000000    -1.606000000    -4.892000000
O    -4.367000000     1.721000000    -2.417000000
H    -3.580000000     1.288000000    -2.750000000
H    -4.960000000     1.004000000    -2.197000000
O    -1.627000000     1.761000000     6.945000000
H    -1.913000000     1.071000000     6.346000000
H    -0.675000000     1.786000000     6.844000000
O     3.789000000     1.025000000    -5.871000000
H     2.878000000     1.161000000    -5.610000000
H     3.812000000     1.268000000    -6.796000000
O     5.849000000    -0.748000000    -0.690000000
H     5.334000000    -0.955000000    -1.470000000
H     5.963000000     0.202000000    -0.725000000
O    -0.542000000    -4.842000000    -3.182000000
H    -0.504000000    -5.774000000    -3.399000000
H    -0.509000000    -4.817000000    -2.226000000
O    -1.330000000    -3.155000000     1.543000000
H    -1.954000000    -2.584000000     1.990000000
H    -0.966000000    -2.611000000     0.844000000
O    -1.252000000     6.202000000     4.392000000
H    -1.289000000     5.440000000     3.814000000
H    -1.413000000     5.847000000     5.266000000
O     2.227000000    -5.614000000     0.039000000
H     2.583000000    -5.364000000     0.891000000
H     1.283000000    -5.480000000     0.124000000
O     1.636000000     0.649000000    -4.040000000
H     1.509000000     1.570000000    -3.812000000
H     0.898000000     0.197000000    -3.631000000
O     4.775000000    -1.803000000     1.625000000
H     4.899000000    -1.390000000     0.771000000
H     3.837000000    -1.718000000     1.798000000
O     5.361000000     3.660000000     2.743000000
H     4.733000000     4.041000000     3.357000000
H     4.970000000     2.823000000     2.491000000
O    -2.465000000    -1.357000000    -7.266000000
H    -3.383000000    -1.251000000    -7.515000000
H    -2.247000000    -0.547000000    -6.804000000
O    -1.654000000     3.788000000     2.939000000
H    -1.082000000     3.076000000     3.225000000
H    -1.812000000     3.611000000     2.012000000
O    -0.378000000    -2.218000000    -4.299000000
H    -0.446000000    -3.059000000    -3.845000000
H     0.453000000    -2.269000000    -4.772000000
O    -3.727000000    -4.891000000    -3.148000000
H    -4.131000000    -4.079000000    -3.455000000
H    -2.902000000    -4.945000000    -3.629000000
O     2.779000000     3.484000000     0.428000000
H     2.750000000     4.432000000     0.554000000
H     2.205000000     3.134000000     1.109000000
O     2.433000000    -1.570000000     2.799000000
H     2.711000000    -1.308000000     3.677000000
H     1.710000000    -0.979000000     2.590000000
O     5.434000000    -4.230000000    -1.128000000
H     5.284000000    -5.070000000    -0.694000000
H     4.560000000    -3.928000000    -1.375000000
O    -2.321000000     0.430000000     4.524000000
H    -1.556000000     0.889000000     4.177000000
H    -2.882000000     0.288000000     3.762000000
O     4.214000000     1.795000000     4.646000000
H     4.891000000     1.147000000     4.453000000
H     3.594000000     1.717000000     3.921000000
O    -4.432000000    -1.025000000     2.785000000
H    -5.353000000    -1.248000000     2.649000000
H    -4.203000000    -1.445000000     3.614000000
O     5.670000000    -0.368000000     3.765000000
H     5.577000000    -1.067000000     3.117000000
H     6.485000000     0.073000000     3.526000000
O    -0.875000000    -5.205000000    -0.125000000
H    -1.461000000    -5.922000000     0.114000000
H    -1.120000000    -4.489000000     0.462000000
O    -2.285000000     1.221000000    -6.428000000
H    -1.583000000     1.868000000    -6.368000000
H    -2.924000000     1.613000000    -7.023000000
O    -1.844000000     4.537000000     6.672000000
H    -1.739000000     3.586000000     6.710000000
H    -2.714000000     4.696000000     7.037000000
O    -5.271000000     4.147000000    -1.040000000
H    -6.005000000     3.787000000    -0.541000000
H    -4.796000000     3.378000000    -1.355000000
O     4.498000000     2.923000000    -1.365000000
H     3.945000000     2.951000000    -0.584000000
H     4.341000000     2.056000000    -1.738000000
O     2.494000000    -4.089000000    -6.088000000
H     2.601000000    -4.579000000    -5.272000000
H     2.544000000    -3.170000000    -5.824000000
O     4.130000000     3.547000000     6.648000000
H     4.423000000     2.847000000     6.064000000
H     3.177000000     3.548000000     6.559000000
O     3.002000000    -4.456000000     2.683000000
H     2.702000000    -3.550000000     2.752000000
H     3.953000000    -4.387000000     2.591000000
O     3.121000000    -0.971000000     5.535000000
H     3.000000000    -1.874000000     5.826000000
H     3.978000000    -0.721000000     5.881000000
O     2.741000000    -3.598000000    -2.087000000
H     2.400000000    -4.191000000    -1.418000000
H     2.937000000    -4.166000000    -2.833000000
O    -0.045000000     5.645000000     0.041000000
H     0.083000000     4.774000000     0.416000000
H     0.842000000     5.977000000    -0.102000000
O    -1.295000000     3.058000000    -2.221000000
H    -1.241000000     2.221000000    -2.683000000
H    -0.512000000     3.535000000    -2.497000000
O    -4.971000000    -2.464000000     0.342000000
H    -5.832000000    -2.557000000     0.749000000
H    -4.360000000    -2.432000000     1.079000000
O    -3.229000000    -2.246000000    -3.875000000
H    -3.407000000    -2.720000000    -4.688000000
H    -2.274000000    -2.245000000    -3.803000000
O    -6.394000000     0.386000000     1.048000000
H    -6.923000000     0.734000000     1.767000000
H    -5.519000000     0.286000000     1.422000000
O     1.281000000     3.709000000     6.394000000
H     0.544000000     3.834000000     6.992000000
H     1.381000000     2.759000000     6.331000000
O    -0.135000000    -1.231000000     7.288000000
H    -0.161000000    -0.335000000     6.951000000
H     0.797000000    -1.426000000     7.381000000
O     2.555000000     4.360000000     3.877000000
H     1.979000000     4.595000000     4.605000000
H     2.256000000     3.492000000     3.606000000
O     0.886000000     0.827000000     5.799000000
H     0.673000000     1.123000000     4.914000000
H     1.667000000     0.284000000     5.688000000
O    -5.986000000    -0.762000000    -5.275000000
H    -6.723000000    -1.352000000    -5.118000000
H    -5.321000000    -1.037000000    -4.643000000
O     4.060000000     0.488000000    -2.435000000
H     4.647000000    -0.121000000    -2.885000000
H     3.422000000     0.742000000    -3.102000000
O    -2.404000000     3.678000000     0.029000000
H    -2.008000000     3.171000000    -0.680000000
H    -3.315000000     3.795000000    -0.240000000
O    -1.756000000     0.522000000    -3.565000000
H    -1.638000000     0.843000000    -4.459000000
H    -1.744000000    -0.432000000    -3.650000000
O    -5.187000000    -1.020000000    -2.297000000
H    -4.353000000    -1.101000000    -2.759000000
H    -4.959000000    -1.122000000    -1.373000000
