158
-3069.68253
C    -0.414000000    -0.126000000     1.420000000
H    -0.852000000    -0.241000000     2.408000000
C    -0.125000000    -1.217000000     0.564000000
H    -0.333000000    -2.219000000     0.930000000
C     0.302000000    -0.951000000    -0.694000000
H     0.595000000    -1.757000000    -1.379000000
C     0.705000000     0.330000000    -1.073000000
H     1.160000000     0.480000000    -2.049000000
C     0.306000000     1.452000000    -0.322000000
H     0.565000000     2.461000000    -0.631000000
C    -0.217000000     1.179000000     1.007000000
C    -0.690000000     2.377000000     1.861000000
O    -1.232000000     2.135000000     2.922000000
O    -0.533000000     3.512000000     1.471000000
O     3.344000000    -1.948000000    -0.840000000
H     3.757000000    -1.203000000    -1.279000000
H     2.993000000    -1.583000000    -0.028000000
O    -3.217000000    -0.448000000    -5.851000000
H    -2.906000000    -1.065000000    -5.188000000
H    -4.052000000    -0.130000000    -5.508000000
O    -0.203000000    -0.652000000     6.919000000
H    -0.536000000    -1.548000000     6.957000000
H    -0.748000000    -0.167000000     7.539000000
O     4.819000000    -0.199000000    -2.352000000
H     4.811000000     0.118000000    -3.255000000
H     5.734000000    -0.425000000    -2.186000000
O    -2.642000000    -2.482000000    -4.237000000
H    -2.327000000    -3.378000000    -4.350000000
H    -3.153000000    -2.508000000    -3.428000000
O     2.622000000    -3.817000000    -6.445000000
H     1.845000000    -3.477000000    -6.001000000
H     2.893000000    -3.109000000    -7.030000000
O    -2.865000000    -5.460000000    -3.228000000
H    -3.508000000    -5.787000000    -2.599000000
H    -2.170000000    -5.085000000    -2.688000000
O     2.601000000     2.082000000     4.980000000
H     1.899000000     1.472000000     4.752000000
H     2.549000000     2.768000000     4.314000000
O    -1.734000000    -3.961000000     2.340000000
H    -2.394000000    -3.316000000     2.592000000
H    -1.102000000    -3.950000000     3.059000000
O     1.789000000    -5.831000000     2.611000000
H     1.881000000    -5.322000000     1.806000000
H     1.532000000    -6.704000000     2.314000000
O    -2.681000000     6.886000000     1.292000000
H    -2.452000000     6.133000000     1.836000000
H    -2.903000000     6.508000000     0.441000000
O     0.393000000     0.541000000     4.496000000
H    -0.097000000     0.380000000     5.303000000
H    -0.163000000     1.136000000     3.993000000
O    -5.069000000     3.717000000     0.893000000
H    -5.662000000     4.283000000     1.388000000
H    -4.838000000     3.019000000     1.506000000
O    -3.140000000    -6.313000000     2.418000000
H    -2.680000000    -5.479000000     2.520000000
H    -2.446000000    -6.972000000     2.426000000
O     0.650000000    -2.047000000    -5.296000000
H    -0.262000000    -2.095000000    -5.582000000
H     0.932000000    -1.166000000    -5.544000000
O     3.293000000    -5.765000000    -4.291000000
H     3.515000000    -5.212000000    -3.542000000
H     3.262000000    -5.162000000    -5.034000000
O     2.438000000     5.784000000    -2.590000000
H     1.715000000     6.028000000    -2.012000000
H     2.724000000     6.611000000    -2.977000000
O     4.416000000     4.627000000    -1.128000000
H     3.677000000     5.178000000    -1.387000000
H     4.639000000     4.925000000    -0.246000000
O     2.805000000     2.830000000     2.216000000
H     2.337000000     3.642000000     2.018000000
H     3.025000000     2.465000000     1.359000000
O     2.636000000    -0.855000000     1.477000000
H     3.526000000    -0.503000000     1.480000000
H     2.095000000    -0.136000000     1.149000000
O    -1.901000000     2.740000000     5.837000000
H    -1.472000000     2.805000000     4.984000000
H    -2.527000000     2.024000000     5.736000000
O     1.201000000     5.186000000     4.298000000
H     1.308000000     5.062000000     3.355000000
H     1.660000000     6.005000000     4.486000000
O     2.427000000    -3.403000000    -3.059000000
H     1.948000000    -2.711000000    -3.516000000
H     2.979000000    -2.937000000    -2.431000000
O     2.239000000    -7.093000000    -1.877000000
H     2.831000000    -6.608000000    -1.302000000
H     2.413000000    -6.742000000    -2.750000000
O     3.611000000     1.827000000    -0.292000000
H     3.841000000     2.711000000    -0.579000000
H     3.964000000     1.254000000    -0.972000000
O    -2.713000000    -1.047000000     4.696000000
H    -2.453000000    -1.727000000     5.318000000
H    -2.551000000    -1.434000000     3.836000000
O     1.339000000     5.300000000     1.640000000
H     0.608000000     4.685000000     1.576000000
H     1.273000000     5.833000000     0.847000000
O    -1.072000000    -4.925000000    -0.150000000
H    -0.138000000    -4.802000000    -0.319000000
H    -1.253000000    -4.371000000     0.610000000
O    -0.025000000    -3.627000000     4.415000000
H     0.774000000    -3.496000000     3.905000000
H     0.270000000    -4.062000000     5.215000000
O    -2.350000000     1.668000000    -3.515000000
H    -2.423000000     1.034000000    -2.802000000
H    -1.683000000     1.301000000    -4.095000000
O     0.798000000     6.609000000    -0.632000000
H    -0.112000000     6.386000000    -0.827000000
H     0.766000000     7.523000000    -0.351000000
O    -1.054000000     6.767000000     4.812000000
H    -1.542000000     6.142000000     4.276000000
H    -0.355000000     6.248000000     5.209000000
O    -0.033000000    -5.287000000    -3.421000000
H     0.445000000    -5.697000000    -2.700000000
H     0.443000000    -4.475000000    -3.593000000
O     1.963000000    -1.836000000     3.779000000
H     1.326000000    -1.309000000     4.261000000
H     2.015000000    -1.420000000     2.919000000
O    -4.531000000    -1.953000000    -2.300000000
H    -5.388000000    -1.923000000    -2.725000000
H    -4.535000000    -2.775000000    -1.810000000
O    -4.315000000     0.802000000     5.674000000
H    -5.112000000     0.297000000     5.832000000
H    -3.683000000     0.159000000     5.351000000
O    -1.001000000     3.566000000    -2.479000000
H    -1.067000000     3.374000000    -1.543000000
H    -1.613000000     2.957000000    -2.892000000
O    -3.330000000     0.170000000    -1.435000000
H    -2.487000000    -0.259000000    -1.290000000
H    -3.909000000    -0.534000000    -1.730000000
O    -0.104000000     1.559000000    -5.340000000
H     0.819000000     1.773000000    -5.203000000
H    -0.139000000     1.211000000    -6.232000000
O    -3.761000000    -2.041000000     2.325000000
H    -4.642000000    -2.116000000     2.692000000
H    -3.897000000    -1.691000000     1.444000000
O    -0.377000000     8.221000000     1.767000000
H    -0.212000000     7.675000000     2.535000000
H    -1.314000000     8.121000000     1.599000000
O     1.493000000     3.469000000    -3.630000000
H     2.042000000     4.170000000    -3.279000000
H     0.629000000     3.630000000    -3.249000000
O     1.708000000    -4.330000000     0.277000000
H     2.072000000    -3.481000000     0.529000000
H     2.318000000    -4.668000000    -0.378000000
O    -2.498000000     4.607000000    -0.160000000
H    -3.244000000     4.024000000    -0.018000000
H    -1.818000000     4.271000000     0.424000000
O    -3.936000000     1.969000000     2.773000000
H    -4.024000000     1.564000000     3.635000000
H    -2.996000000     1.951000000     2.594000000
O    -0.987000000     6.485000000    -2.766000000
H    -1.056000000     6.298000000    -3.703000000
H    -1.415000000     5.742000000    -2.341000000
O    -2.166000000     4.924000000     3.297000000
H    -1.636000000     4.273000000     2.838000000
H    -2.614000000     4.429000000     3.983000000
O     2.942000000     2.026000000    -5.478000000
H     3.247000000     2.768000000    -6.001000000
H     2.399000000     2.421000000    -4.796000000
