158
-3055.19422
C    -0.955000000    -0.274000000     1.163000000
H    -1.616000000    -0.447000000     2.008000000
C    -0.571000000    -1.174000000     0.185000000
H    -1.069000000    -2.136000000     0.274000000
C     0.293000000    -0.842000000    -0.808000000
H     0.547000000    -1.675000000    -1.557000000
C     0.860000000     0.426000000    -0.947000000
H     1.531000000     0.731000000    -1.746000000
C     0.465000000     1.368000000    -0.023000000
H     0.786000000     2.403000000    -0.112000000
C    -0.438000000     1.021000000     1.055000000
C    -0.806000000     2.092000000     2.096000000
O    -1.418000000     1.852000000     3.142000000
O    -0.482000000     3.236000000     1.770000000
O     5.979000000    -1.998000000    -1.691000000
H     5.821000000    -1.349000000    -1.005000000
H     6.380000000    -1.501000000    -2.403000000
O    -6.072000000    -0.064000000     3.949000000
H    -6.510000000     0.759000000     3.729000000
H    -5.156000000     0.180000000     4.080000000
O    -1.915000000    -1.722000000    -5.120000000
H    -2.225000000    -1.936000000    -4.240000000
H    -1.001000000    -1.466000000    -4.996000000
O    -0.105000000     1.026000000     6.788000000
H    -0.433000000     0.379000000     7.413000000
H    -0.887000000     1.494000000     6.496000000
O    -1.591000000    -2.762000000    -2.692000000
H    -0.892000000    -2.799000000    -2.040000000
H    -2.354000000    -3.129000000    -2.246000000
O     4.235000000    -6.256000000    -2.171000000
H     3.852000000    -5.924000000    -1.359000000
H     4.802000000    -6.975000000    -1.892000000
O    -2.749000000    -5.791000000    -2.634000000
H    -3.097000000    -6.254000000    -1.872000000
H    -1.837000000    -6.075000000    -2.691000000
O     1.152000000     2.943000000     4.576000000
H     0.349000000     3.012000000     4.060000000
H     1.538000000     3.818000000     4.537000000
O    -0.110000000    -4.508000000     1.273000000
H    -1.057000000    -4.627000000     1.346000000
H     0.116000000    -3.937000000     2.007000000
O    -4.465000000    -3.794000000    -2.691000000
H    -3.935000000    -4.511000000    -3.039000000
H    -4.753000000    -4.103000000    -1.832000000
O    -5.113000000    -1.810000000     1.446000000
H    -4.875000000    -1.054000000     0.909000000
H    -5.280000000    -1.445000000     2.314000000
O    -1.522000000     7.408000000     3.746000000
H    -1.438000000     6.673000000     4.354000000
H    -1.701000000     6.999000000     2.900000000
O    -0.229000000    -0.104000000     4.239000000
H    -0.026000000     0.042000000     5.163000000
H    -0.602000000     0.725000000     3.941000000
O    -4.901000000     2.739000000     2.014000000
H    -5.745000000     2.663000000     2.458000000
H    -4.253000000     2.634000000     2.710000000
O     0.854000000    -1.318000000    -5.585000000
H     1.184000000    -0.593000000    -5.055000000
H     0.411000000    -0.895000000    -6.320000000
O     3.354000000     5.237000000    -2.364000000
H     2.416000000     5.356000000    -2.511000000
H     3.723000000     6.116000000    -2.450000000
O     5.536000000     3.765000000    -1.070000000
H     4.763000000     4.083000000    -1.536000000
H     5.517000000     4.226000000    -0.232000000
O     1.888000000     4.682000000     2.032000000
H     1.814000000     5.188000000     1.223000000
H     1.123000000     4.106000000     2.025000000
O     3.157000000     0.232000000     0.854000000
H     3.133000000     0.861000000     1.575000000
H     2.492000000     0.546000000     0.241000000
O     5.841000000    -1.289000000     1.124000000
H     6.543000000    -0.639000000     1.139000000
H     5.076000000    -0.808000000     0.807000000
O    -3.042000000     4.161000000     3.695000000
H    -2.771000000     4.855000000     3.093000000
H    -2.404000000     3.461000000     3.555000000
O     2.067000000     5.543000000     4.609000000
H     2.830000000     5.965000000     5.004000000
H     2.326000000     5.381000000     3.702000000
O     1.203000000    -4.364000000    -5.750000000
H     1.105000000    -3.419000000    -5.629000000
H     0.358000000    -4.650000000    -6.096000000
O     4.082000000     1.045000000    -2.624000000
H     4.897000000     0.661000000    -2.947000000
H     4.314000000     1.947000000    -2.402000000
O    -2.377000000    -2.366000000     4.762000000
H    -1.439000000    -2.513000000     4.886000000
H    -2.602000000    -2.886000000     3.991000000
O    -1.440000000     5.595000000     1.459000000
H    -1.008000000     4.743000000     1.530000000
H    -0.850000000     6.118000000     0.916000000
O    -1.777000000    -4.465000000    -5.467000000
H    -2.057000000    -4.692000000    -4.581000000
H    -1.804000000    -3.509000000    -5.490000000
O     1.868000000    -4.955000000    -0.553000000
H     2.086000000    -4.134000000    -0.993000000
H     1.172000000    -4.720000000     0.062000000
O     0.817000000    -3.765000000     3.924000000
H     1.066000000    -2.912000000     3.567000000
H     0.642000000    -3.595000000     4.850000000
O    -2.045000000     2.331000000    -4.897000000
H    -2.033000000     1.517000000    -4.393000000
H    -1.925000000     2.051000000    -5.805000000
O     0.640000000     5.363000000    -2.632000000
H     0.130000000     6.018000000    -3.109000000
H     0.000000000     4.695000000    -2.386000000
O    -4.459000000     0.092000000    -0.266000000
H    -4.494000000    -0.404000000    -1.084000000
H    -3.565000000     0.433000000    -0.231000000
O     4.041000000    -2.921000000    -4.236000000
H     3.899000000    -2.030000000    -4.556000000
H     4.949000000    -3.118000000    -4.468000000
O    -0.928000000     5.561000000     5.599000000
H    -0.155000000     5.545000000     6.164000000
H    -0.974000000     4.679000000     5.231000000
O     0.002000000    -6.283000000    -2.003000000
H     0.148000000    -5.666000000    -1.286000000
H     0.774000000    -6.188000000    -2.561000000
O     1.791000000    -1.198000000     3.036000000
H     0.988000000    -0.803000000     3.376000000
H     2.156000000    -0.534000000     2.452000000
O    -1.332000000     3.556000000    -2.420000000
H    -1.745000000     3.282000000    -1.602000000
H    -1.797000000     3.067000000    -3.099000000
O    -2.116000000     0.389000000    -2.644000000
H    -1.450000000    -0.062000000    -2.126000000
H    -2.823000000    -0.251000000    -2.735000000
O    -2.666000000     1.776000000     6.457000000
H    -3.342000000     1.308000000     5.966000000
H    -3.118000000     2.540000000     6.817000000
O     3.315000000     1.947000000     3.051000000
H     2.894000000     2.342000000     3.815000000
H     4.145000000     2.417000000     2.966000000
O    -3.064000000    -3.915000000     2.274000000
H    -3.236000000    -4.754000000     1.848000000
H    -3.907000000    -3.462000000     2.260000000
O    -3.641000000     4.611000000     6.363000000
H    -3.506000000     4.583000000     5.415000000
H    -3.221000000     5.424000000     6.641000000
O     1.805000000     6.180000000    -0.121000000
H     1.960000000     7.099000000    -0.341000000
H     1.337000000     5.828000000    -0.878000000
O     1.058000000     2.964000000    -3.883000000
H     0.219000000     2.647000000    -3.547000000
H     1.071000000     3.894000000    -3.656000000
O     2.967000000    -2.833000000    -1.550000000
H     3.274000000    -2.012000000    -1.166000000
H     3.488000000    -2.934000000    -2.347000000
O    -3.315000000     4.232000000    -0.041000000
H    -3.653000000     3.569000000     0.561000000
H    -2.859000000     4.857000000     0.522000000
O    -3.577000000     0.481000000     4.239000000
H    -3.212000000    -0.269000000     4.707000000
H    -2.811000000     0.967000000     3.931000000
O     2.389000000     0.852000000    -4.901000000
H     1.911000000     1.666000000    -4.742000000
H     2.994000000     0.782000000    -4.162000000
