158
-3041.98378
C    -0.895000000    -0.107000000     1.188000000
H    -1.485000000    -0.334000000     2.072000000
C    -1.054000000    -0.779000000    -0.071000000
H    -1.873000000    -1.485000000    -0.187000000
C    -0.138000000    -0.562000000    -1.128000000
H    -0.245000000    -0.981000000    -2.104000000
C     0.960000000     0.259000000    -0.875000000
H     1.676000000     0.402000000    -1.681000000
C     1.043000000     0.918000000     0.347000000
H     1.845000000     1.648000000     0.429000000
C     0.191000000     0.746000000     1.409000000
C     0.353000000     1.406000000     2.752000000
O    -0.456000000     1.236000000     3.654000000
O     1.240000000     2.240000000     2.917000000
O     3.312000000     5.884000000     0.797000000
H     2.990000000     6.550000000     0.191000000
H     2.579000000     5.277000000     0.899000000
O     5.809000000    -0.604000000    -4.167000000
H     5.594000000    -1.501000000    -4.422000000
H     5.713000000    -0.596000000    -3.214000000
O     0.506000000    -1.879000000    -6.682000000
H     0.702000000    -2.212000000    -7.558000000
H     0.977000000    -1.047000000    -6.632000000
O    -2.771000000     0.015000000     8.140000000
H    -2.520000000     0.526000000     8.909000000
H    -2.399000000     0.496000000     7.401000000
O     1.552000000     0.476000000    -7.516000000
H     1.886000000     0.744000000    -6.660000000
H     0.878000000     1.124000000    -7.723000000
O     5.971000000     4.999000000    -0.194000000
H     5.130000000     4.777000000     0.204000000
H     5.910000000     4.663000000    -1.088000000
O    -3.181000000    -5.136000000    -4.518000000
H    -2.707000000    -4.859000000    -3.734000000
H    -2.604000000    -4.896000000    -5.243000000
O    -0.413000000    -4.719000000    -0.480000000
H    -0.136000000    -5.274000000     0.249000000
H    -0.027000000    -3.864000000    -0.290000000
O    -0.543000000    -1.250000000     4.593000000
H    -0.442000000    -0.373000000     4.224000000
H    -1.450000000    -1.279000000     4.897000000
O    -2.152000000     6.494000000     2.622000000
H    -1.681000000     5.662000000     2.576000000
H    -2.005000000     6.802000000     3.517000000
O    -2.672000000    -3.789000000     4.630000000
H    -3.087000000    -3.158000000     5.218000000
H    -2.739000000    -4.626000000     5.090000000
O     1.234000000    -2.774000000     0.388000000
H     0.959000000    -2.010000000    -0.118000000
H     0.863000000    -2.631000000     1.259000000
O    -5.768000000    -4.475000000     0.230000000
H    -5.479000000    -5.176000000    -0.355000000
H    -4.966000000    -4.005000000     0.456000000
O     2.051000000     0.624000000    -4.738000000
H     1.208000000     0.374000000    -4.359000000
H     2.417000000     1.251000000    -4.114000000
O    -1.181000000     5.232000000     5.252000000
H    -1.709000000     4.715000000     4.643000000
H    -0.402000000     4.698000000     5.407000000
O     3.081000000    -1.089000000     4.210000000
H     2.456000000    -1.587000000     3.684000000
H     3.132000000    -0.236000000     3.779000000
O    -2.170000000     0.326000000    -7.329000000
H    -1.600000000     1.021000000    -7.659000000
H    -3.052000000     0.694000000    -7.382000000
O    -1.527000000     3.748000000     2.993000000
H    -0.975000000     3.005000000     3.238000000
H    -2.377000000     3.358000000     2.789000000
O    -4.112000000    -3.018000000     1.965000000
H    -4.117000000    -2.124000000     2.307000000
H    -3.558000000    -3.505000000     2.576000000
O    -1.132000000    -0.535000000    -4.979000000
H    -1.594000000    -0.178000000    -5.737000000
H    -0.675000000    -1.305000000    -5.317000000
O    -2.891000000    -6.290000000     1.184000000
H    -2.254000000    -5.814000000     0.651000000
H    -3.371000000    -6.831000000     0.557000000
O    -1.745000000    -3.511000000    -2.811000000
H    -1.331000000    -3.809000000    -2.001000000
H    -1.018000000    -3.386000000    -3.420000000
O     3.022000000     2.351000000    -2.851000000
H     3.395000000     3.110000000    -3.300000000
H     3.666000000     2.132000000    -2.177000000
O     1.208000000     4.263000000     1.557000000
H     0.501000000     4.799000000     1.917000000
H     1.255000000     3.505000000     2.141000000
O     3.795000000     1.173000000     2.739000000
H     4.384000000     1.872000000     3.022000000
H     2.940000000     1.597000000     2.665000000
O    -1.349000000     1.310000000     6.115000000
H    -0.648000000     1.941000000     6.278000000
H    -1.276000000     1.107000000     5.183000000
O     4.344000000     3.618000000     5.717000000
H     4.704000000     3.646000000     4.830000000
H     4.763000000     2.858000000     6.121000000
O    -4.924000000    -0.819000000     3.386000000
H    -5.540000000    -0.201000000     2.993000000
H    -5.478000000    -1.497000000     3.772000000
O     0.951000000    -2.648000000     2.991000000
H     0.886000000    -3.555000000     3.288000000
H     0.240000000    -2.196000000     3.446000000
O     0.095000000     3.759000000    -4.350000000
H     0.130000000     4.346000000    -3.595000000
H     0.798000000     4.064000000    -4.923000000
O    -1.242000000    -4.217000000    -6.366000000
H    -0.587000000    -3.839000000    -5.779000000
H    -1.254000000    -3.630000000    -7.122000000
O     0.741000000    -3.237000000    -4.297000000
H     1.067000000    -2.883000000    -5.125000000
H     1.516000000    -3.289000000    -3.737000000
O    -3.753000000     0.925000000    -0.572000000
H    -3.057000000     1.580000000    -0.522000000
H    -3.595000000     0.471000000    -1.400000000
O     1.238000000     3.772000000    -1.499000000
H     1.575000000     3.770000000    -0.603000000
H     1.806000000     3.162000000    -1.969000000
O     3.450000000    -4.117000000    -2.655000000
H     3.576000000    -3.937000000    -3.587000000
H     3.702000000    -3.304000000    -2.218000000
O     3.603000000    -3.666000000     1.613000000
H     2.855000000    -3.238000000     1.196000000
H     3.674000000    -4.511000000     1.169000000
O    -1.284000000    -7.139000000    -1.827000000
H    -0.612000000    -7.778000000    -2.066000000
H    -0.804000000    -6.319000000    -1.713000000
O    -1.700000000     2.793000000    -1.211000000
H    -1.642000000     2.410000000    -2.086000000
H    -0.800000000     2.778000000    -0.883000000
O    -3.305000000    -0.800000000    -2.747000000
H    -2.447000000    -0.401000000    -2.889000000
H    -3.129000000    -1.740000000    -2.706000000
O     1.131000000     3.713000000     5.337000000
H     1.138000000     3.271000000     4.488000000
H     2.037000000     3.662000000     5.641000000
O     4.554000000     2.646000000    -0.075000000
H     5.406000000     2.289000000    -0.323000000
H     4.372000000     2.259000000     0.782000000
O     4.832000000    -1.466000000    -1.547000000
H     5.538000000    -1.901000000    -1.069000000
H     4.201000000    -1.221000000    -0.871000000
O    -6.654000000     0.010000000    -0.877000000
H    -7.150000000     0.821000000    -0.762000000
H    -5.739000000     0.291000000    -0.904000000
O     1.817000000    -6.410000000    -3.528000000
H     1.677000000    -6.313000000    -4.470000000
H     1.936000000    -5.515000000    -3.210000000
O     3.786000000    -0.997000000     0.844000000
H     4.011000000    -0.389000000     1.548000000
H     3.830000000    -1.862000000     1.251000000
O    -4.019000000     2.731000000     1.930000000
H    -4.728000000     2.203000000     2.299000000
H    -3.914000000     2.401000000     1.038000000
O    -1.771000000     1.752000000    -3.759000000
H    -1.040000000     2.344000000    -3.942000000
H    -1.655000000     1.030000000    -4.376000000
O    -5.942000000    -0.516000000    -3.357000000
H    -6.414000000    -0.642000000    -2.534000000
H    -5.018000000    -0.527000000    -3.107000000
