158
-3015.46068
C    -0.184000000    -0.484000000     1.370000000
H    -0.359000000    -0.960000000     2.331000000
C     0.081000000    -1.302000000     0.272000000
H     0.044000000    -2.380000000     0.406000000
C     0.310000000    -0.669000000    -0.958000000
H     0.501000000    -1.295000000    -1.825000000
C     0.295000000     0.717000000    -1.116000000
H     0.582000000     1.071000000    -2.103000000
C    -0.071000000     1.523000000    -0.011000000
H    -0.289000000     2.579000000    -0.149000000
C    -0.242000000     0.883000000     1.260000000
C    -0.753000000     1.670000000     2.399000000
O    -0.747000000     1.192000000     3.531000000
O    -1.123000000     2.824000000     2.243000000
O     4.815000000    -2.037000000    -2.146000000
H     4.425000000    -1.498000000    -2.834000000
H     5.483000000    -1.475000000    -1.753000000
O    -4.613000000     0.914000000     0.468000000
H    -4.876000000     0.176000000     1.019000000
H    -5.397000000     1.461000000     0.412000000
O     4.167000000     0.131000000    -3.992000000
H     3.269000000     0.253000000    -4.299000000
H     4.428000000     0.992000000    -3.667000000
O    -3.797000000     3.902000000     6.414000000
H    -3.195000000     3.996000000     5.677000000
H    -4.582000000     3.507000000     6.034000000
O     5.115000000     3.086000000    -2.011000000
H     4.192000000     3.260000000    -1.827000000
H     5.170000000     3.073000000    -2.967000000
O    -2.446000000    -1.865000000    -4.735000000
H    -2.872000000    -2.506000000    -5.304000000
H    -2.698000000    -2.127000000    -3.849000000
O     1.074000000    -3.437000000    -5.603000000
H     1.431000000    -2.559000000    -5.739000000
H     1.168000000    -3.868000000    -6.452000000
O    -3.980000000    -2.960000000    -2.613000000
H    -4.060000000    -2.632000000    -1.717000000
H    -3.407000000    -3.723000000    -2.538000000
O     2.027000000     2.086000000     4.091000000
H     1.143000000     2.152000000     3.729000000
H     2.589000000     2.481000000     3.425000000
O    -2.180000000    -4.930000000     1.052000000
H    -2.431000000    -4.007000000     1.051000000
H    -1.476000000    -4.986000000     1.699000000
O    -0.326000000    -4.917000000     2.870000000
H     0.578000000    -4.608000000     2.926000000
H    -0.728000000    -4.631000000     3.691000000
O    -0.794000000     7.021000000     3.531000000
H    -0.501000000     6.355000000     2.909000000
H    -1.226000000     6.526000000     4.227000000
O    -3.553000000     5.681000000     2.773000000
H    -3.875000000     6.145000000     2.000000000
H    -2.698000000     6.073000000     2.948000000
O     0.583000000    -0.357000000     5.367000000
H     1.393000000     0.126000000     5.527000000
H     0.169000000     0.103000000     4.637000000
O    -0.692000000    -0.290000000    -6.256000000
H    -1.012000000    -0.879000000    -5.573000000
H    -1.455000000    -0.132000000    -6.813000000
O    -4.522000000     3.246000000    -2.414000000
H    -4.523000000     4.158000000    -2.123000000
H    -3.832000000     2.830000000    -1.896000000
O    -1.381000000    -4.800000000    -5.399000000
H    -0.681000000    -4.336000000    -4.940000000
H    -1.561000000    -4.261000000    -6.169000000
O     2.343000000     4.146000000    -0.430000000
H     1.731000000     4.197000000    -1.163000000
H     2.974000000     4.846000000    -0.595000000
O     3.229000000     3.286000000     1.973000000
H     2.872000000     3.538000000     1.121000000
H     4.171000000     3.205000000     1.822000000
O     4.192000000     0.278000000     2.609000000
H     3.268000000     0.517000000     2.535000000
H     4.259000000    -0.161000000     3.457000000
O    -3.140000000     0.676000000     4.565000000
H    -2.235000000     0.845000000     4.301000000
H    -3.608000000     0.539000000     3.742000000
O     2.452000000     5.814000000     4.204000000
H     2.151000000     5.315000000     3.445000000
H     3.385000000     5.954000000     4.045000000
O     1.774000000     1.831000000     8.093000000
H     2.069000000     2.738000000     8.009000000
H     2.001000000     1.427000000     7.255000000
O     2.768000000    -5.677000000    -5.332000000
H     1.913000000    -5.627000000    -4.903000000
H     3.187000000    -4.841000000    -5.127000000
O    -1.946000000    -3.254000000     5.067000000
H    -2.018000000    -3.502000000     5.989000000
H    -1.914000000    -2.297000000     5.079000000
O     0.079000000     5.458000000     1.276000000
H    -0.278000000     4.646000000     1.636000000
H     0.703000000     5.170000000     0.610000000
O     2.109000000    -4.154000000     3.819000000
H     3.032000000    -3.915000000     3.731000000
H     1.744000000    -3.491000000     4.405000000
O    -2.264000000    -5.188000000    -2.320000000
H    -1.370000000    -5.323000000    -2.634000000
H    -2.189000000    -5.208000000    -1.366000000
O    -2.282000000     4.030000000    -4.346000000
H    -2.874000000     3.447000000    -3.872000000
H    -2.171000000     4.783000000    -3.765000000
O     0.027000000     7.988000000    -0.527000000
H     0.811000000     7.773000000    -1.033000000
H    -0.110000000     7.228000000     0.038000000
O     5.886000000    -0.163000000    -0.582000000
H     5.202000000     0.394000000    -0.210000000
H     6.701000000     0.305000000    -0.400000000
O    -0.869000000     5.857000000     6.138000000
H    -0.942000000     5.161000000     5.485000000
H    -0.872000000     5.398000000     6.978000000
O     0.799000000    -5.228000000    -3.149000000
H     1.458000000    -5.911000000    -3.025000000
H     1.305000000    -4.436000000    -3.329000000
O     4.174000000    -2.558000000     0.637000000
H     4.152000000    -2.105000000    -0.205000000
H     3.396000000    -2.245000000     1.098000000
O    -4.486000000     0.637000000     6.871000000
H    -4.526000000    -0.306000000     7.028000000
H    -3.694000000     0.760000000     6.347000000
O    -2.532000000     5.435000000    -1.973000000
H    -2.442000000     4.841000000    -1.228000000
H    -3.365000000     5.883000000    -1.824000000
O    -3.882000000    -1.993000000    -0.078000000
H    -3.761000000    -1.055000000    -0.223000000
H    -4.639000000    -2.050000000     0.505000000
O     1.769000000    -2.809000000     6.204000000
H     1.431000000    -1.921000000     6.085000000
H     1.052000000    -3.283000000     6.626000000
O     1.615000000     0.348000000    -4.697000000
H     1.311000000     1.253000000    -4.619000000
H     0.860000000    -0.128000000    -5.043000000
O     3.056000000     0.591000000     5.969000000
H     2.832000000     1.318000000     5.389000000
H     3.991000000     0.702000000     6.144000000
O    -4.160000000    -3.761000000     3.601000000
H    -3.524000000    -3.424000000     4.231000000
H    -4.238000000    -4.691000000     3.812000000
O     0.397000000     5.024000000    -2.300000000
H     0.852000000     5.865000000    -2.268000000
H    -0.459000000     5.200000000    -1.910000000
O     3.232000000    -4.147000000    -2.711000000
H     3.658000000    -3.323000000    -2.474000000
H     3.759000000    -4.821000000    -2.282000000
O     1.460000000    -6.201000000     0.718000000
H     1.357000000    -5.787000000    -0.139000000
H     0.582000000    -6.187000000     1.098000000
O    -2.566000000     3.709000000     0.229000000
H    -3.451000000     3.538000000     0.550000000
H    -1.993000000     3.382000000     0.923000000
O    -2.560000000     1.314000000    -1.709000000
H    -3.013000000     1.181000000    -0.877000000
H    -1.930000000     0.595000000    -1.756000000
O    -1.433000000     3.705000000     4.660000000
H    -1.113000000     2.971000000     5.186000000
H    -1.639000000     3.317000000     3.809000000
O     1.213000000     3.389000000    -4.676000000
H     1.874000000     3.978000000    -5.040000000
H     0.775000000     3.907000000    -4.001000000
