158
-3057.60197
C    -1.139000000    -0.205000000     0.965000000
H    -1.971000000    -0.545000000     1.576000000
C    -0.594000000    -1.175000000     0.094000000
H    -1.011000000    -2.175000000     0.175000000
C     0.389000000    -0.821000000    -0.809000000
H     0.626000000    -1.510000000    -1.597000000
C     0.908000000     0.450000000    -0.877000000
H     1.653000000     0.663000000    -1.639000000
C     0.416000000     1.445000000     0.007000000
H     0.895000000     2.418000000     0.071000000
C    -0.586000000     1.120000000     0.948000000
C    -0.978000000     2.140000000     1.991000000
O    -1.832000000     1.905000000     2.785000000
O    -0.370000000     3.183000000     2.099000000
O     0.595000000     2.309000000     6.404000000
H     1.219000000     2.439000000     5.689000000
H     0.672000000     1.380000000     6.622000000
O    -3.293000000    -2.802000000    -5.506000000
H    -3.388000000    -2.812000000    -4.554000000
H    -2.723000000    -3.547000000    -5.699000000
O     4.211000000    -3.827000000    -0.892000000
H     4.149000000    -2.875000000    -0.814000000
H     3.509000000    -4.159000000    -0.332000000
O     1.786000000    -0.315000000    -7.421000000
H     1.532000000    -1.012000000    -6.815000000
H     2.197000000    -0.773000000    -8.154000000
O    -0.062000000    -5.088000000    -1.106000000
H    -0.838000000    -5.419000000    -0.654000000
H     0.426000000    -5.874000000    -1.352000000
O    -2.847000000    -4.796000000     1.773000000
H    -2.516000000    -5.410000000     2.429000000
H    -3.390000000    -4.185000000     2.270000000
O    -0.711000000    -0.201000000     4.388000000
H    -1.302000000     0.518000000     4.163000000
H    -0.921000000    -0.408000000     5.298000000
O    -1.292000000    -2.618000000     3.275000000
H    -2.241000000    -2.548000000     3.168000000
H    -1.038000000    -1.799000000     3.701000000
O     0.481000000    -4.480000000     3.444000000
H    -0.227000000    -3.842000000     3.353000000
H     0.052000000    -5.330000000     3.340000000
O    -3.854000000    -2.879000000    -2.550000000
H    -3.021000000    -2.613000000    -2.160000000
H    -4.338000000    -3.282000000    -1.829000000
O    -5.484000000    -0.213000000     2.880000000
H    -5.254000000     0.458000000     2.237000000
H    -5.531000000     0.258000000     3.712000000
O    -0.791000000     6.340000000     3.453000000
H    -0.415000000     6.003000000     4.266000000
H    -1.276000000     5.600000000     3.088000000
O     1.863000000    -0.036000000     3.108000000
H     1.021000000    -0.345000000     3.442000000
H     1.848000000     0.909000000     3.258000000
O    -4.619000000     2.347000000     1.627000000
H    -5.404000000     2.874000000     1.774000000
H    -4.018000000     2.612000000     2.323000000
O    -4.447000000    -4.723000000    -0.615000000
H    -4.013000000    -5.351000000    -1.192000000
H    -3.767000000    -4.454000000     0.002000000
O    -1.197000000     0.734000000    -5.172000000
H    -0.499000000     1.241000000    -4.757000000
H    -1.296000000     1.129000000    -6.038000000
O     1.152000000    -3.611000000    -3.035000000
H     1.885000000    -4.202000000    -3.209000000
H     0.758000000    -3.949000000    -2.230000000
O     3.666000000    -4.879000000    -3.720000000
H     4.517000000    -5.242000000    -3.967000000
H     3.813000000    -3.935000000    -3.675000000
O     5.087000000     2.389000000    -2.399000000
H     5.994000000     2.537000000    -2.666000000
H     4.946000000     3.002000000    -1.678000000
O     1.063000000     5.404000000     1.071000000
H     0.446000000     5.961000000     0.597000000
H     0.555000000     4.627000000     1.304000000
O     4.240000000     2.109000000     1.503000000
H     4.742000000     2.552000000     2.187000000
H     3.814000000     1.379000000     1.953000000
O     5.227000000    -0.938000000     2.385000000
H     6.069000000    -0.970000000     1.930000000
H     4.578000000    -1.076000000     1.695000000
O    -2.737000000     4.533000000     2.495000000
H    -2.829000000     4.758000000     1.569000000
H    -2.156000000     3.772000000     2.500000000
O     3.107000000     5.198000000     2.735000000
H     2.980000000     6.036000000     3.179000000
H     2.694000000     5.315000000     1.880000000
O     0.979000000    -2.647000000    -5.823000000
H     0.546000000    -3.248000000    -6.429000000
H     1.036000000    -3.134000000    -5.001000000
O     3.815000000     1.105000000    -4.405000000
H     4.250000000     1.435000000    -5.192000000
H     4.131000000     1.673000000    -3.702000000
O    -4.287000000    -1.138000000     5.949000000
H    -3.434000000    -0.989000000     6.356000000
H    -4.081000000    -1.474000000     5.077000000
O    -2.893000000     5.229000000    -0.025000000
H    -2.121000000     5.601000000    -0.451000000
H    -3.478000000     5.976000000     0.104000000
O     1.346000000    -6.344000000    -4.681000000
H     1.476000000    -6.200000000    -5.618000000
H     2.039000000    -5.832000000    -4.263000000
O    -1.411000000    -5.162000000    -4.984000000
H    -1.048000000    -5.232000000    -5.867000000
H    -0.669000000    -5.340000000    -4.406000000
O     1.906000000    -4.057000000     0.829000000
H     1.274000000    -4.584000000     0.340000000
H     1.589000000    -4.080000000     1.732000000
O    -4.841000000     4.692000000     4.373000000
H    -4.633000000     4.608000000     5.303000000
H    -3.993000000     4.833000000     3.950000000
O    -2.309000000     3.569000000    -3.065000000
H    -2.566000000     2.723000000    -2.698000000
H    -2.798000000     4.212000000    -2.552000000
O    -5.266000000    -0.448000000    -0.658000000
H    -5.841000000    -0.584000000    -1.411000000
H    -4.429000000    -0.184000000    -1.040000000
O     3.709000000    -1.624000000    -4.961000000
H     2.755000000    -1.681000000    -4.914000000
H     3.917000000    -0.766000000    -4.590000000
O    -0.201000000     5.328000000     5.861000000
H    -0.128000000     4.374000000     5.875000000
H     0.345000000     5.622000000     6.590000000
O     3.061000000    -1.234000000     0.931000000
H     2.608000000    -0.941000000     1.721000000
H     2.424000000    -1.791000000     0.482000000
O     0.346000000     3.968000000    -2.550000000
H    -0.586000000     3.750000000    -2.557000000
H     0.789000000     3.124000000    -2.640000000
O    -2.044000000    -0.394000000    -2.655000000
H    -1.952000000    -0.236000000    -3.594000000
H    -1.150000000    -0.548000000    -2.349000000
O    -3.635000000     2.728000000     7.300000000
H    -3.155000000     2.432000000     6.526000000
H    -3.387000000     3.648000000     7.398000000
O     1.752000000     2.785000000     3.574000000
H     0.957000000     2.946000000     3.064000000
H     2.226000000     3.616000000     3.546000000
O    -4.146000000    -2.510000000     3.225000000
H    -4.927000000    -3.063000000     3.218000000
H    -4.467000000    -1.640000000     2.986000000
O    -0.006000000     6.602000000    -1.275000000
H    -0.373000000     6.540000000    -2.156000000
H     0.940000000     6.523000000    -1.403000000
O     5.000000000    -0.520000000    -0.846000000
H     4.184000000    -0.541000000    -0.346000000
H     4.876000000     0.189000000    -1.477000000
O    -3.194000000     1.810000000    -0.970000000
H    -2.451000000     1.286000000    -0.670000000
H    -3.686000000     2.006000000    -0.172000000
O    -1.912000000     2.422000000     5.316000000
H    -0.999000000     2.307000000     5.581000000
H    -1.914000000     2.237000000     4.377000000
O     1.268000000     2.062000000    -4.242000000
H     1.236000000     2.768000000    -4.889000000
H     2.109000000     1.633000000    -4.397000000
O     4.032000000     4.036000000    -0.314000000
H     4.015000000     3.379000000     0.382000000
H     3.132000000     4.064000000    -0.638000000
