158
-3012.82204
C    -0.335000000    -0.527000000     1.304000000
H    -0.580000000    -1.032000000     2.235000000
C     0.021000000    -1.269000000     0.232000000
H     0.094000000    -2.350000000     0.322000000
C     0.401000000    -0.623000000    -0.953000000
H     0.656000000    -1.209000000    -1.820000000
C     0.217000000     0.714000000    -1.089000000
H     0.481000000     1.135000000    -2.056000000
C    -0.247000000     1.479000000    -0.021000000
H    -0.297000000     2.552000000    -0.186000000
C    -0.499000000     0.880000000     1.257000000
C    -1.057000000     1.672000000     2.411000000
O    -1.062000000     1.153000000     3.496000000
O    -1.271000000     2.887000000     2.311000000
O     2.473000000     6.415000000     0.856000000
H     2.868000000     5.700000000     0.358000000
H     2.174000000     7.034000000     0.190000000
O     3.133000000    -2.503000000    -2.881000000
H     2.579000000    -1.997000000    -3.475000000
H     3.476000000    -1.856000000    -2.264000000
O    -4.523000000     0.001000000     1.000000000
H    -4.174000000    -0.664000000     0.407000000
H    -3.970000000    -0.058000000     1.779000000
O     1.879000000    -0.654000000    -4.424000000
H     0.932000000    -0.790000000    -4.459000000
H     2.105000000    -0.320000000    -5.292000000
O     1.763000000     3.945000000    -5.206000000
H     2.124000000     4.781000000    -5.500000000
H     2.530000000     3.420000000    -4.976000000
O    -2.723000000     1.674000000     5.404000000
H    -2.030000000     1.663000000     4.744000000
H    -3.505000000     1.950000000     4.925000000
O     3.305000000     1.731000000    -2.688000000
H     2.497000000     1.239000000    -2.837000000
H     3.647000000     1.901000000    -3.566000000
O    -0.602000000    -3.622000000    -5.767000000
H    -0.643000000    -2.805000000    -5.269000000
H    -1.061000000    -3.428000000    -6.584000000
O     1.377000000     3.378000000     3.392000000
H     0.501000000     3.001000000     3.309000000
H     1.875000000     2.986000000     2.674000000
O    -2.032000000    -6.054000000     1.894000000
H    -1.543000000    -6.070000000     2.716000000
H    -1.374000000    -5.861000000     1.227000000
O    -5.303000000     4.346000000     1.971000000
H    -5.267000000     5.256000000     2.265000000
H    -6.123000000     4.285000000     1.481000000
O     0.980000000    -0.596000000     4.532000000
H     0.999000000    -0.360000000     5.459000000
H     0.301000000    -0.036000000     4.155000000
O    -2.818000000    -2.541000000    -3.911000000
H    -3.553000000    -2.272000000    -3.361000000
H    -3.203000000    -2.671000000    -4.778000000
O    -1.702000000    -4.536000000    -2.391000000
H    -1.238000000    -5.109000000    -3.001000000
H    -1.671000000    -3.672000000    -2.803000000
O     5.408000000    -3.461000000    -4.234000000
H     4.793000000    -3.264000000    -3.528000000
H     5.010000000    -3.073000000    -5.014000000
O     1.033000000     4.819000000    -1.442000000
H     1.032000000     5.559000000    -2.049000000
H     1.544000000     4.144000000    -1.889000000
O     5.306000000    -0.054000000     1.250000000
H     4.374000000    -0.054000000     1.033000000
H     5.722000000    -0.520000000     0.525000000
O     2.772000000     2.896000000     1.066000000
H     2.165000000     3.502000000     0.641000000
H     3.466000000     2.760000000     0.420000000
O     2.738000000     0.239000000     0.907000000
H     2.604000000     1.159000000     1.135000000
H     1.922000000    -0.023000000     0.481000000
O    -3.308000000    -1.001000000     3.537000000
H    -2.573000000    -0.552000000     3.955000000
H    -3.042000000    -1.920000000     3.506000000
O     1.508000000     6.310000000     3.444000000
H     1.448000000     5.361000000     3.339000000
H     1.689000000     6.638000000     2.563000000
O     4.034000000    -2.147000000    -6.005000000
H     3.706000000    -1.312000000    -6.339000000
H     3.251000000    -2.688000000    -5.900000000
O     3.037000000     4.184000000     5.267000000
H     3.280000000     5.083000000     5.047000000
H     2.421000000     3.927000000     4.581000000
O     1.837000000    -4.537000000    -4.911000000
H     1.034000000    -4.258000000    -5.351000000
H     1.548000000    -4.823000000    -4.045000000
O    -1.307000000    -5.997000000    -4.622000000
H    -1.231000000    -5.220000000    -5.176000000
H    -0.717000000    -6.636000000    -5.023000000
O    -1.814000000    -0.953000000     6.631000000
H    -0.883000000    -0.733000000     6.652000000
H    -2.249000000    -0.135000000     6.390000000
O    -2.574000000    -3.257000000     4.992000000
H    -2.211000000    -2.490000000     5.434000000
H    -1.896000000    -3.927000000     5.078000000
O    -1.547000000     1.713000000    -5.790000000
H    -1.532000000     2.611000000    -5.460000000
H    -1.113000000     1.764000000    -6.642000000
O    -0.721000000     5.405000000     0.914000000
H    -0.696000000     4.726000000     1.588000000
H    -0.342000000     4.988000000     0.140000000
O     2.328000000    -5.301000000     3.012000000
H     2.794000000    -4.471000000     3.119000000
H     1.413000000    -5.087000000     3.194000000
O    -3.711000000    -2.557000000     0.084000000
H    -3.306000000    -3.277000000    -0.401000000
H    -4.144000000    -2.981000000     0.825000000
O     2.469000000    -0.101000000    -6.980000000
H     3.049000000     0.636000000    -7.172000000
H     1.788000000    -0.051000000    -7.651000000
O     5.074000000    -0.202000000    -1.976000000
H     4.480000000     0.546000000    -2.043000000
H     5.948000000     0.187000000    -1.951000000
O    -0.946000000     4.787000000     7.057000000
H    -1.524000000     4.693000000     6.300000000
H    -1.533000000     4.752000000     7.812000000
O    -0.115000000    -5.641000000    -0.258000000
H    -0.767000000    -5.404000000    -0.917000000
H     0.712000000    -5.307000000    -0.607000000
O     2.616000000    -1.753000000     2.836000000
H     2.697000000    -1.084000000     2.157000000
H     2.122000000    -1.325000000     3.536000000
O    -5.407000000     2.255000000     3.889000000
H    -6.045000000     2.561000000     4.533000000
H    -5.477000000     2.880000000     3.167000000
O    -3.176000000     6.705000000     0.268000000
H    -2.647000000     5.938000000     0.488000000
H    -3.889000000     6.696000000     0.906000000
O     0.072000000    -4.055000000     5.702000000
H    -0.029000000    -3.113000000     5.570000000
H     0.900000000    -4.144000000     6.173000000
O    -0.989000000    -0.872000000    -4.771000000
H    -1.150000000    -0.045000000    -5.226000000
H    -1.854000000    -1.154000000    -4.474000000
O     0.791000000    -0.233000000     7.173000000
H     1.585000000    -0.752000000     7.309000000
H     0.629000000     0.183000000     8.019000000
O    -2.785000000     4.097000000    -2.150000000
H    -2.968000000     3.687000000    -1.304000000
H    -2.898000000     5.035000000    -1.990000000
O     1.827000000    -4.886000000    -2.106000000
H     2.310000000    -4.112000000    -2.396000000
H     2.506000000    -5.511000000    -1.854000000
O    -3.002000000     3.556000000     0.463000000
H    -3.854000000     3.677000000     0.881000000
H    -2.419000000     3.298000000     1.177000000
O    -2.957000000    -0.395000000    -1.713000000
H    -3.317000000    -1.201000000    -1.343000000
H    -2.018000000    -0.449000000    -1.536000000
O    -2.390000000     4.499000000     4.827000000
H    -1.951000000     4.444000000     3.979000000
H    -2.677000000     3.604000000     5.007000000
O    -1.335000000     4.175000000    -4.500000000
H    -0.444000000     4.363000000    -4.206000000
H    -1.862000000     4.202000000    -3.701000000
O     4.467000000     3.712000000    -1.086000000
H     4.369000000     4.335000000    -1.806000000
H     4.198000000     2.872000000    -1.458000000
