158
-3033.87536
C     0.722000000     0.921000000     0.815000000
H     1.396000000     1.629000000     1.289000000
C     1.275000000    -0.038000000     0.054000000
H     2.350000000     0.012000000    -0.094000000
C     0.478000000    -0.932000000    -0.684000000
H     0.990000000    -1.682000000    -1.268000000
C    -0.924000000    -0.772000000    -0.614000000
H    -1.544000000    -1.458000000    -1.186000000
C    -1.518000000     0.239000000     0.220000000
H    -2.585000000     0.445000000     0.240000000
C    -0.663000000     1.133000000     0.910000000
C    -1.246000000     2.243000000     1.710000000
O    -0.549000000     2.840000000     2.507000000
O    -2.423000000     2.523000000     1.596000000
O    -3.835000000     6.303000000     2.262000000
H    -3.515000000     5.875000000     1.468000000
H    -3.894000000     5.598000000     2.907000000
O    -0.465000000     0.867000000    -4.257000000
H     0.407000000     0.549000000    -4.025000000
H    -0.405000000     1.818000000    -4.164000000
O    -0.152000000    -3.185000000    -3.715000000
H    -0.970000000    -3.369000000    -3.252000000
H    -0.109000000    -2.230000000    -3.755000000
O    -2.082000000    -1.513000000     4.364000000
H    -1.295000000    -1.997000000     4.612000000
H    -1.815000000    -0.594000000     4.385000000
O    -5.892000000     0.946000000    -1.342000000
H    -4.958000000     1.158000000    -1.317000000
H    -6.017000000     0.329000000    -0.622000000
O     4.043000000     5.356000000     2.031000000
H     3.362000000     6.028000000     1.990000000
H     3.563000000     4.528000000     2.038000000
O    -0.777000000     5.236000000     4.440000000
H    -0.405000000     6.020000000     4.037000000
H    -0.387000000     4.509000000     3.954000000
O     1.800000000     4.807000000    -1.802000000
H     1.284000000     4.617000000    -1.019000000
H     2.662000000     4.435000000    -1.617000000
O    -1.392000000    -6.122000000    -4.245000000
H    -2.323000000    -6.002000000    -4.431000000
H    -1.120000000    -5.298000000    -3.841000000
O     4.691000000    -1.253000000     3.871000000
H     3.828000000    -0.841000000     3.854000000
H     5.271000000    -0.582000000     4.230000000
O     5.461000000     2.217000000     1.177000000
H     5.907000000     2.394000000     2.005000000
H     5.198000000     1.299000000     1.238000000
O    -6.196000000     4.470000000     1.763000000
H    -6.627000000     4.087000000     0.999000000
H    -5.672000000     3.755000000     2.126000000
O    -2.475000000    -3.670000000    -2.388000000
H    -2.988000000    -4.150000000    -1.738000000
H    -3.109000000    -3.426000000    -3.062000000
O     2.063000000     3.549000000     3.084000000
H     2.372000000     3.154000000     3.899000000
H     1.174000000     3.211000000     2.975000000
O     4.627000000     2.433000000    -3.883000000
H     4.639000000     3.298000000    -3.473000000
H     4.974000000     1.845000000    -3.212000000
O     0.499000000     0.483000000    -7.187000000
H     0.634000000     0.797000000    -6.292000000
H    -0.247000000     0.988000000    -7.508000000
O     4.323000000     3.901000000    -0.874000000
H     5.010000000     4.543000000    -0.692000000
H     4.371000000     3.285000000    -0.143000000
O    -4.279000000    -1.653000000     0.093000000
H    -4.132000000    -1.657000000     1.039000000
H    -3.400000000    -1.682000000    -0.285000000
O     0.666000000     6.926000000     2.868000000
H     1.556000000     7.243000000     2.708000000
H     0.374000000     6.597000000     2.018000000
O    -1.904000000    -7.084000000    -1.572000000
H    -1.697000000    -6.699000000    -2.424000000
H    -2.125000000    -6.336000000    -1.018000000
O     0.412000000    -5.289000000    -0.287000000
H     0.604000000    -6.065000000    -0.813000000
H     1.234000000    -4.799000000    -0.274000000
O    -6.430000000    -2.833000000    -1.141000000
H    -5.685000000    -2.457000000    -0.670000000
H    -6.038000000    -3.271000000    -1.897000000
O    -0.095000000     5.072000000     0.591000000
H    -1.013000000     5.290000000     0.429000000
H    -0.127000000     4.342000000     1.209000000
O    -2.066000000    -4.564000000     1.344000000
H    -1.224000000    -4.641000000     0.895000000
H    -1.906000000    -3.936000000     2.048000000
O    -0.216000000     1.286000000     4.539000000
H    -0.133000000     1.927000000     3.832000000
H    -1.076000000     1.460000000     4.921000000
O    -4.778000000     3.734000000    -1.953000000
H    -4.743000000     4.213000000    -2.781000000
H    -4.339000000     2.904000000    -2.138000000
O     4.396000000    -0.703000000    -2.073000000
H     4.963000000     0.005000000    -1.767000000
H     4.764000000    -1.493000000    -1.678000000
O     4.340000000    -3.260000000     1.954000000
H     5.018000000    -3.855000000     2.275000000
H     4.346000000    -2.532000000     2.576000000
O     1.322000000     5.437000000     6.236000000
H     1.586000000     4.527000000     6.097000000
H     0.462000000     5.503000000     5.821000000
O     2.037000000    -0.652000000    -3.902000000
H     2.276000000    -0.741000000    -2.980000000
H     2.872000000    -0.678000000    -4.370000000
O    -4.154000000     0.138000000    -4.598000000
H    -3.852000000     0.931000000    -5.041000000
H    -5.081000000     0.299000000    -4.423000000
O    -3.156000000     1.341000000    -2.196000000
H    -3.452000000     0.706000000    -2.848000000
H    -2.245000000     1.102000000    -2.025000000
O    -5.026000000     1.948000000     1.701000000
H    -4.106000000     2.194000000     1.794000000
H    -5.024000000     0.992000000     1.753000000
O    -3.067000000     4.724000000     0.355000000
H    -3.812000000     4.542000000    -0.218000000
H    -2.664000000     3.868000000     0.503000000
O     5.697000000    -1.892000000     0.124000000
H     5.166000000    -2.283000000     0.818000000
H     6.598000000    -2.120000000     0.354000000
O    -5.671000000     3.329000000     4.689000000
H    -4.786000000     3.203000000     4.348000000
H    -5.929000000     2.465000000     5.011000000
O     4.900000000    -3.812000000    -1.915000000
H     5.235000000    -3.691000000    -2.803000000
H     5.633000000    -3.576000000    -1.347000000
O     2.887000000    -4.215000000    -0.160000000
H     3.471000000    -3.932000000    -0.864000000
H     3.178000000    -3.720000000     0.606000000
O     2.259000000    -0.186000000     3.726000000
H     1.412000000    -0.228000000     4.171000000
H     2.083000000     0.304000000     2.922000000
O     2.029000000    -4.914000000    -2.942000000
H     2.669000000    -4.403000000    -2.447000000
H     1.326000000    -4.294000000    -3.136000000
O     1.683000000     2.675000000     6.052000000
H     2.369000000     2.083000000     6.360000000
H     1.045000000     2.102000000     5.627000000
O    -0.541000000    -3.162000000    -6.556000000
H    -1.029000000    -2.536000000    -6.020000000
H     0.295000000    -3.266000000    -6.102000000
O     3.902000000    -6.982000000     0.795000000
H     3.997000000    -6.039000000     0.658000000
H     3.442000000    -7.292000000     0.015000000
O    -1.857000000    -1.080000000    -5.567000000
H    -2.771000000    -0.799000000    -5.514000000
H    -1.384000000    -0.458000000    -5.015000000
O    -3.196000000     3.739000000     3.861000000
H    -2.483000000     4.303000000     4.160000000
H    -2.834000000     3.275000000     3.106000000
O    -3.877000000    -5.019000000    -0.754000000
H    -3.553000000    -4.700000000     0.089000000
H    -4.804000000    -4.781000000    -0.759000000
O    -4.232000000    -0.997000000     2.755000000
H    -3.459000000    -1.237000000     3.265000000
H    -4.965000000    -1.386000000     3.232000000
O    -2.709000000     1.465000000     5.633000000
H    -2.837000000     1.745000000     6.539000000
H    -3.501000000     1.753000000     5.178000000
