158
-3041.82975
C    -0.841000000     1.205000000     0.348000000
H    -1.212000000     2.202000000     0.573000000
C     0.156000000     0.558000000     1.181000000
H     0.453000000     1.106000000     2.072000000
C     0.824000000    -0.589000000     0.756000000
H     1.646000000    -1.048000000     1.349000000
C     0.329000000    -1.270000000    -0.356000000
H     0.832000000    -2.184000000    -0.660000000
C    -0.613000000    -0.631000000    -1.144000000
H    -1.070000000    -1.092000000    -2.016000000
C    -1.224000000     0.583000000    -0.797000000
C    -2.098000000     1.271000000    -1.804000000
O    -2.925000000     2.087000000    -1.386000000
O    -2.151000000     0.973000000    -2.993000000
O     4.788000000    -1.409000000    -0.992000000
H     5.304000000    -1.999000000    -0.443000000
H     4.035000000    -1.933000000    -1.266000000
O    -7.677000000     1.914000000    -2.423000000
H    -6.958000000     1.299000000    -2.567000000
H    -7.573000000     2.197000000    -1.515000000
O     3.724000000     3.203000000    -1.489000000
H     4.266000000     3.982000000    -1.363000000
H     4.284000000     2.475000000    -1.219000000
O     1.504000000    -3.459000000    -5.591000000
H     1.887000000    -3.234000000    -4.743000000
H     1.585000000    -2.660000000    -6.111000000
O    -1.087000000    -3.175000000     1.951000000
H    -1.184000000    -3.687000000     1.149000000
H    -1.599000000    -2.383000000     1.794000000
O    -4.326000000     3.279000000    -3.185000000
H    -4.295000000     4.145000000    -2.778000000
H    -3.796000000     2.726000000    -2.610000000
O     5.582000000     1.203000000    -1.662000000
H     5.536000000     1.393000000    -2.598000000
H     5.322000000     0.284000000    -1.591000000
O    -2.265000000     4.648000000    -0.528000000
H    -2.456000000     3.710000000    -0.527000000
H    -2.641000000     4.970000000     0.292000000
O     2.785000000    -5.756000000     4.596000000
H     3.259000000    -6.355000000     4.019000000
H     2.115000000    -5.363000000     4.036000000
O    -3.160000000     2.370000000     4.478000000
H    -2.874000000     1.531000000     4.840000000
H    -2.362000000     2.896000000     4.433000000
O    -0.145000000     5.237000000    -4.591000000
H    -0.963000000     4.834000000    -4.883000000
H     0.092000000     4.752000000    -3.801000000
O    -1.123000000    -2.117000000    -5.976000000
H    -0.992000000    -2.164000000    -6.924000000
H    -1.095000000    -3.028000000    -5.685000000
O    -1.617000000     7.396000000    -0.374000000
H    -1.830000000     6.505000000    -0.651000000
H    -0.676000000     7.375000000    -0.203000000
O    -3.693000000    -1.343000000    -4.798000000
H    -2.958000000    -1.520000000    -5.385000000
H    -3.380000000    -1.613000000    -3.935000000
O     1.967000000     3.832000000     4.910000000
H     1.715000000     4.302000000     4.115000000
H     1.164000000     3.794000000     5.430000000
O    -2.183000000    -0.081000000     5.882000000
H    -1.769000000    -0.626000000     5.213000000
H    -1.748000000    -0.331000000     6.698000000
O     1.509000000    -4.790000000     2.160000000
H     0.820000000    -4.427000000     2.717000000
H     1.037000000    -5.253000000     1.468000000
O    -4.198000000     2.351000000     0.954000000
H    -5.082000000     1.994000000     0.874000000
H    -3.822000000     2.259000000     0.079000000
O     2.103000000     2.781000000    -3.971000000
H     2.561000000     2.742000000    -3.131000000
H     1.312000000     3.288000000    -3.789000000
O     2.584000000     0.462000000     6.340000000
H     1.982000000     0.842000000     6.981000000
H     2.971000000     1.218000000     5.898000000
O    -2.931000000     1.053000000    -7.481000000
H    -2.079000000     1.410000000    -7.230000000
H    -3.518000000     1.310000000    -6.770000000
O     0.949000000     4.930000000     2.787000000
H     1.006000000     4.713000000     1.856000000
H     1.439000000     5.747000000     2.872000000
O     1.624000000    -1.712000000     5.060000000
H     1.774000000    -0.886000000     5.519000000
H     2.479000000    -1.943000000     4.697000000
O    -0.477000000    -5.535000000     0.115000000
H     0.292000000    -5.778000000    -0.400000000
H    -1.086000000    -5.165000000    -0.524000000
O    -4.546000000     1.146000000    -5.307000000
H    -4.286000000     0.225000000    -5.314000000
H    -4.041000000     1.533000000    -4.592000000
O    -1.414000000     6.315000000     3.238000000
H    -0.678000000     5.705000000     3.281000000
H    -2.190000000     5.755000000     3.236000000
O     4.393000000    -2.214000000     4.411000000
H     4.989000000    -1.592000000     4.828000000
H     4.422000000    -2.988000000     4.973000000
O     6.087000000    -1.589000000     1.504000000
H     6.669000000    -1.502000000     2.259000000
H     5.240000000    -1.829000000     1.882000000
O     2.418000000    -2.609000000    -3.107000000
H     2.529000000    -1.697000000    -2.838000000
H     2.845000000    -3.116000000    -2.416000000
O     5.567000000    -5.485000000     1.046000000
H     5.820000000    -5.367000000     0.131000000
H     5.365000000    -4.601000000     1.354000000
O     8.105000000    -1.873000000    -0.475000000
H     8.629000000    -1.088000000    -0.316000000
H     7.377000000    -1.805000000     0.142000000
O     1.534000000    -5.896000000    -1.426000000
H     1.427000000    -5.749000000    -2.366000000
H     1.892000000    -6.782000000    -1.362000000
O     3.243000000    -3.876000000    -0.587000000
H     3.474000000    -3.877000000     0.342000000
H     2.445000000    -4.403000000    -0.636000000
O    -2.159000000    -5.136000000    -2.253000000
H    -1.896000000    -5.460000000    -3.114000000
H    -2.893000000    -5.696000000    -2.000000000
O     2.127000000    -0.042000000    -2.607000000
H     2.158000000     0.122000000    -1.665000000
H     1.313000000     0.372000000    -2.895000000
O     1.264000000     4.955000000    -0.399000000
H     1.546000000     5.868000000    -0.459000000
H     1.750000000     4.509000000    -1.092000000
O    -3.141000000     6.054000000    -3.314000000
H    -3.052000000     6.871000000    -3.805000000
H    -2.947000000     5.368000000    -3.952000000
O    -0.147000000     0.367000000    -4.799000000
H    -0.354000000    -0.567000000    -4.769000000
H    -0.839000000     0.782000000    -4.284000000
O    -2.576000000     4.049000000    -5.141000000
H    -2.847000000     4.352000000    -6.008000000
H    -3.272000000     3.452000000    -4.867000000
O     0.029000000     3.092000000    -6.671000000
H    -0.603000000     2.832000000    -6.000000000
H     0.829000000     3.286000000    -6.183000000
O     4.048000000    -3.563000000     2.141000000
H     3.323000000    -4.165000000     2.311000000
H     4.026000000    -2.948000000     2.875000000
O    -3.727000000     4.499000000     2.684000000
H    -3.677000000     3.662000000     2.221000000
H    -4.187000000     4.295000000     3.498000000
O    -0.243000000     3.387000000    -2.578000000
H    -0.952000000     2.745000000    -2.620000000
H    -0.450000000     3.924000000    -1.814000000
O    -1.030000000    -1.977000000     4.532000000
H    -0.996000000    -2.636000000     3.838000000
H    -0.120000000    -1.704000000     4.648000000
O    -3.142000000    -2.562000000    -1.879000000
H    -3.023000000    -2.403000000    -0.943000000
H    -2.837000000    -3.459000000    -2.010000000
O    -5.688000000    -0.734000000     0.461000000
H    -5.620000000    -0.101000000    -0.253000000
H    -6.367000000    -0.377000000     1.034000000
O    -2.884000000    -1.197000000     1.190000000
H    -3.835000000    -1.106000000     1.122000000
H    -2.544000000    -0.337000000     0.945000000
O    -5.424000000     0.011000000    -2.268000000
H    -4.681000000     0.519000000    -2.595000000
H    -5.107000000    -0.892000000    -2.247000000
