158
-3025.98038
C     0.765000000    -1.207000000    -0.391000000
H     1.504000000    -2.003000000    -0.437000000
C     1.298000000     0.088000000    -0.398000000
H     2.351000000     0.339000000    -0.494000000
C     0.490000000     1.112000000     0.059000000
H     0.902000000     2.078000000     0.238000000
C    -0.874000000     0.894000000     0.369000000
H    -1.468000000     1.782000000     0.566000000
C    -1.423000000    -0.363000000     0.097000000
H    -2.474000000    -0.560000000     0.292000000
C    -0.613000000    -1.441000000    -0.163000000
C    -1.241000000    -2.837000000    -0.146000000
O    -2.384000000    -3.064000000     0.127000000
O    -0.534000000    -3.788000000    -0.400000000
O     2.358000000     2.532000000    -2.857000000
H     2.299000000     2.932000000    -1.989000000
H     1.650000000     1.889000000    -2.873000000
O    -0.577000000     1.527000000    -3.095000000
H    -0.988000000     1.289000000    -2.263000000
H    -1.304000000     1.814000000    -3.647000000
O     2.276000000    -3.592000000     1.483000000
H     1.401000000    -3.208000000     1.541000000
H     2.862000000    -2.899000000     1.787000000
O    -6.404000000    -4.607000000     2.063000000
H    -6.081000000    -5.505000000     1.995000000
H    -5.637000000    -4.063000000     1.884000000
O    -1.357000000    -1.099000000    -3.734000000
H    -0.907000000    -1.944000000    -3.750000000
H    -0.828000000    -0.557000000    -3.149000000
O     0.906000000     4.496000000     4.757000000
H     1.354000000     3.694000000     4.489000000
H     0.674000000     4.346000000     5.674000000
O    -3.893000000    -4.741000000     4.619000000
H    -3.405000000    -3.918000000     4.623000000
H    -4.775000000    -4.498000000     4.899000000
O     2.780000000     5.193000000     2.498000000
H     2.340000000     4.840000000     3.272000000
H     3.374000000     5.860000000     2.843000000
O    -3.093000000    -6.825000000     3.062000000
H    -3.247000000    -6.014000000     3.545000000
H    -3.962000000    -7.098000000     2.768000000
O    -3.654000000     1.142000000     1.998000000
H    -3.805000000     1.995000000     2.404000000
H    -3.815000000     0.511000000     2.699000000
O     0.550000000     4.895000000     0.922000000
H     0.916000000     4.544000000     1.734000000
H     0.967000000     5.751000000     0.822000000
O     1.251000000     0.203000000     5.517000000
H     1.704000000     0.934000000     5.096000000
H     0.841000000     0.589000000     6.291000000
O     4.885000000     3.093000000    -4.118000000
H     5.290000000     3.917000000    -3.845000000
H     4.049000000     3.072000000    -3.653000000
O    -1.370000000    -8.423000000    -1.152000000
H    -0.643000000    -9.017000000    -1.338000000
H    -0.979000000    -7.723000000    -0.629000000
O     5.109000000    -0.787000000    -2.974000000
H     5.637000000    -0.056000000    -3.294000000
H     4.296000000    -0.733000000    -3.478000000
O     5.909000000     3.962000000     1.683000000
H     5.228000000     3.585000000     2.240000000
H     6.338000000     4.614000000     2.238000000
O     3.688000000    -1.445000000     2.098000000
H     4.200000000    -1.455000000     1.289000000
H     3.322000000    -0.562000000     2.139000000
O     0.026000000    -0.942000000     2.920000000
H    -0.060000000    -0.397000000     2.137000000
H     0.559000000    -0.420000000     3.518000000
O    -4.187000000     0.554000000    -2.647000000
H    -4.984000000     0.171000000    -3.012000000
H    -3.610000000    -0.194000000    -2.494000000
O     0.573000000    -2.850000000    -4.752000000
H     0.601000000    -3.447000000    -4.004000000
H     0.511000000    -3.425000000    -5.515000000
O    -5.873000000    -3.934000000    -3.019000000
H    -6.799000000    -3.689000000    -3.024000000
H    -5.444000000    -3.238000000    -2.520000000
O    -2.647000000     4.871000000    -2.618000000
H    -2.920000000     4.629000000    -1.733000000
H    -2.951000000     4.149000000    -3.169000000
O     2.399000000     2.178000000     3.560000000
H     2.703000000     2.173000000     2.652000000
H     3.195000000     2.290000000     4.079000000
O     3.889000000     6.734000000    -0.432000000
H     3.077000000     7.070000000    -0.052000000
H     4.327000000     7.509000000    -0.783000000
O     4.475000000     1.228000000     1.260000000
H     4.661000000     2.047000000     0.799000000
H     5.203000000     0.652000000     1.028000000
O    -2.154000000     4.480000000     0.140000000
H    -1.421000000     4.792000000     0.670000000
H    -2.331000000     3.599000000     0.470000000
O    -1.773000000     7.182000000     0.061000000
H    -2.011000000     6.441000000    -0.497000000
H    -2.247000000     7.029000000     0.878000000
O    -1.616000000    -5.487000000    -3.964000000
H    -0.688000000    -5.280000000    -3.846000000
H    -1.951000000    -5.595000000    -3.074000000
O     2.077000000    -7.777000000     1.284000000
H     2.433000000    -7.195000000     1.955000000
H     1.314000000    -7.309000000     0.942000000
O    -4.665000000     2.635000000    -0.981000000
H    -4.731000000     1.883000000    -1.569000000
H    -4.376000000     2.262000000    -0.148000000
O     4.843000000    -2.143000000    -0.304000000
H     4.488000000    -3.014000000    -0.480000000
H     5.205000000    -1.858000000    -1.143000000
O    -2.191000000    -2.404000000     4.077000000
H    -2.179000000    -1.764000000     4.788000000
H    -1.434000000    -2.177000000     3.537000000
O     0.779000000    -4.510000000    -2.626000000
H     0.319000000    -4.334000000    -1.805000000
H     1.700000000    -4.577000000    -2.375000000
O    -2.370000000    -5.432000000    -1.562000000
H    -1.972000000    -4.680000000    -1.123000000
H    -2.474000000    -6.086000000    -0.871000000
O     2.657000000     6.486000000    -3.297000000
H     2.784000000     6.645000000    -2.362000000
H     2.162000000     5.668000000    -3.336000000
O    -4.393000000    -2.089000000    -1.835000000
H    -3.639000000    -2.605000000    -1.550000000
H    -4.848000000    -1.863000000    -1.023000000
O    -0.258000000    -6.384000000     0.282000000
H    -0.199000000    -5.565000000    -0.210000000
H    -0.245000000    -6.113000000     1.200000000
O     3.396000000     4.012000000    -0.461000000
H     3.087000000     4.634000000     0.199000000
H     4.232000000     4.372000000    -0.757000000
O    -4.200000000    -2.896000000     1.996000000
H    -3.508000000    -2.981000000     1.339000000
H    -3.732000000    -2.771000000     2.822000000
O     0.452000000     4.829000000    -3.298000000
H    -0.422000000     4.889000000    -2.914000000
H     0.745000000     3.941000000    -3.092000000
O    -5.650000000    -1.150000000     0.671000000
H    -5.638000000    -0.299000000     1.110000000
H    -5.063000000    -1.697000000     1.193000000
O    -0.423000000    -6.002000000     2.941000000
H    -1.299000000    -5.948000000     2.558000000
H    -0.505000000    -5.567000000     3.790000000
O     3.629000000    -4.292000000    -3.842000000
H     3.587000000    -4.038000000    -2.920000000
H     3.636000000    -5.249000000    -3.827000000
O    -5.225000000    -0.271000000     3.804000000
H    -5.808000000     0.387000000     4.182000000
H    -5.804000000    -0.993000000     3.559000000
O    -1.627000000     5.496000000     3.751000000
H    -1.844000000     5.596000000     4.678000000
H    -0.698000000     5.266000000     3.746000000
O    -3.391000000     3.690000000     3.086000000
H    -2.696000000     4.349000000     3.070000000
H    -4.138000000     4.139000000     3.482000000
O     0.746000000     7.939000000     0.226000000
H    -0.144000000     7.587000000     0.263000000
H     0.701000000     8.756000000     0.723000000
O     3.139000000    -4.270000000    -0.897000000
H     3.617000000    -5.096000000    -0.829000000
H     2.857000000    -4.081000000    -0.002000000
