158
-3043.01821
C    -0.433000000     1.417000000    -0.075000000
H    -0.715000000     2.466000000    -0.113000000
C     0.269000000     0.842000000     0.971000000
H     0.537000000     1.480000000     1.809000000
C     0.599000000    -0.494000000     0.953000000
H     1.199000000    -1.008000000     1.726000000
C     0.211000000    -1.260000000    -0.135000000
H     0.515000000    -2.299000000    -0.236000000
C    -0.360000000    -0.692000000    -1.241000000
H    -0.627000000    -1.404000000    -2.018000000
C    -0.907000000     0.632000000    -1.160000000
C    -1.511000000     1.286000000    -2.381000000
O    -2.068000000     2.424000000    -2.289000000
O    -1.121000000     0.924000000    -3.476000000
O     2.688000000     0.615000000    -1.894000000
H     2.082000000     1.020000000    -1.275000000
H     2.195000000    -0.115000000    -2.270000000
O    -2.492000000    -0.959000000     1.307000000
H    -1.547000000    -1.109000000     1.277000000
H    -2.582000000    -0.009000000     1.389000000
O    -2.361000000     3.793000000    -4.472000000
H    -3.159000000     3.418000000    -4.845000000
H    -2.223000000     3.304000000    -3.661000000
O    -1.155000000     6.194000000    -3.604000000
H    -0.365000000     6.012000000    -3.097000000
H    -1.478000000     5.331000000    -3.865000000
O     2.248000000    -5.173000000     4.583000000
H     2.845000000    -5.898000000     4.396000000
H     1.389000000    -5.493000000     4.306000000
O    -1.769000000     3.168000000     3.327000000
H    -1.411000000     2.928000000     4.182000000
H    -2.653000000     3.483000000     3.517000000
O     1.730000000     4.606000000    -5.490000000
H     0.902000000     4.887000000    -5.880000000
H     1.472000000     4.105000000    -4.716000000
O     0.262000000    -3.321000000     5.292000000
H     0.544000000    -2.757000000     6.012000000
H     1.077000000    -3.636000000     4.901000000
O    -3.062000000    -2.297000000    -5.220000000
H    -2.143000000    -2.554000000    -5.137000000
H    -3.438000000    -2.944000000    -5.817000000
O    -4.810000000    -1.211000000    -3.410000000
H    -4.053000000    -1.776000000    -3.567000000
H    -4.788000000    -1.038000000    -2.469000000
O     2.440000000     3.356000000     3.460000000
H     2.828000000     2.707000000     4.047000000
H     2.482000000     2.953000000     2.594000000
O    -2.571000000     0.354000000     5.698000000
H    -2.269000000    -0.257000000     5.027000000
H    -1.891000000     1.027000000     5.732000000
O     0.500000000    -4.392000000     1.582000000
H     0.004000000    -5.135000000     1.926000000
H     0.072000000    -4.182000000     0.753000000
O    -3.176000000     4.390000000    -0.845000000
H    -3.144000000     5.096000000    -1.491000000
H    -2.830000000     3.627000000    -1.307000000
O     2.652000000    -6.187000000     1.133000000
H     1.982000000    -5.527000000     1.314000000
H     3.316000000    -6.045000000     1.807000000
O     0.962000000     3.182000000    -3.227000000
H     0.453000000     3.750000000    -2.649000000
H     0.392000000     2.429000000    -3.386000000
O     4.075000000     0.731000000     6.753000000
H     3.172000000     0.597000000     7.043000000
H     4.100000000     0.366000000     5.869000000
O     2.130000000     0.383000000     4.187000000
H     2.600000000     0.169000000     3.381000000
H     1.242000000     0.058000000     4.039000000
O     3.573000000    -3.173000000     6.009000000
H     2.889000000    -2.543000000     6.233000000
H     3.131000000    -3.823000000     5.463000000
O    -0.903000000    -3.984000000    -0.728000000
H    -0.167000000    -4.315000000    -1.242000000
H    -1.645000000    -4.004000000    -1.332000000
O    -2.317000000     0.726000000    -6.073000000
H    -2.396000000    -0.149000000    -5.691000000
H    -1.636000000     1.153000000    -5.553000000
O    -1.124000000     7.549000000    -0.229000000
H    -0.168000000     7.576000000    -0.275000000
H    -1.315000000     6.814000000     0.354000000
O     4.005000000    -0.341000000     2.295000000
H     4.694000000     0.055000000     1.762000000
H     4.465000000    -0.701000000     3.053000000
O     2.276000000    -1.711000000    -3.336000000
H     3.060000000    -1.547000000    -3.859000000
H     2.545000000    -2.376000000    -2.702000000
O     1.302000000    -5.139000000    -1.822000000
H     1.525000000    -6.034000000    -1.566000000
H     1.222000000    -5.175000000    -2.776000000
O    -2.051000000    -5.985000000     0.934000000
H    -1.763000000    -5.116000000     0.654000000
H    -2.145000000    -6.479000000     0.119000000
O    -5.027000000     5.597000000     1.089000000
H    -5.840000000     5.172000000     1.362000000
H    -4.676000000     5.026000000     0.406000000
O     3.422000000    -3.459000000    -1.553000000
H     2.632000000    -3.999000000    -1.592000000
H     3.473000000    -3.175000000    -0.640000000
O    -2.987000000    -4.223000000    -2.569000000
H    -2.752000000    -4.719000000    -3.353000000
H    -3.883000000    -4.496000000    -2.373000000
O     0.540000000    -1.240000000    -7.093000000
H     1.417000000    -1.624000000    -7.087000000
H     0.334000000    -1.099000000    -6.169000000
O    -5.130000000     1.087000000    -5.729000000
H    -4.295000000     1.203000000    -6.181000000
H    -5.238000000     0.138000000    -5.665000000
O    -5.150000000     3.725000000    -4.922000000
H    -5.353000000     2.843000000    -5.234000000
H    -5.580000000     3.782000000    -4.069000000
O     5.040000000    -1.157000000     4.918000000
H     4.803000000    -2.083000000     4.958000000
H     5.871000000    -1.143000000     4.444000000
O     2.755000000     1.642000000    -4.968000000
H     2.446000000     1.854000000    -4.088000000
H     2.030000000     1.887000000    -5.543000000
O     3.011000000     5.329000000     0.365000000
H     3.628000000     4.881000000    -0.213000000
H     3.285000000     5.080000000     1.248000000
O    -0.297000000    -1.456000000    -4.285000000
H     0.627000000    -1.482000000    -4.036000000
H    -0.594000000    -0.588000000    -4.010000000
O    -0.753000000     4.913000000    -6.457000000
H    -1.248000000     4.888000000    -7.276000000
H    -1.344000000     4.531000000    -5.808000000
O     0.952000000     1.512000000    -6.877000000
H     0.445000000     2.080000000    -7.458000000
H     0.619000000     0.632000000    -7.052000000
O     2.754000000    -2.965000000     1.124000000
H     1.921000000    -3.397000000     1.312000000
H     2.664000000    -2.093000000     1.509000000
O    -1.851000000    -5.215000000     5.800000000
H    -1.396000000    -4.373000000     5.783000000
H    -1.373000000    -5.731000000     6.450000000
O    -1.134000000     4.938000000     0.968000000
H    -1.324000000     4.787000000     1.894000000
H    -1.734000000     4.356000000     0.503000000
O     0.451000000     5.151000000    -1.183000000
H    -0.209000000     5.045000000    -0.497000000
H     1.270000000     5.288000000    -0.708000000
O    -1.450000000    -1.495000000     4.056000000
H    -1.999000000    -1.703000000     3.300000000
H    -1.073000000    -2.335000000     4.316000000
O    -4.407000000    -1.034000000    -0.804000000
H    -4.868000000    -0.484000000    -0.170000000
H    -3.633000000    -1.344000000    -0.333000000
O    -5.843000000     2.970000000    -0.308000000
H    -5.361000000     2.615000000    -1.055000000
H    -6.644000000     3.330000000    -0.689000000
O    -3.303000000     1.639000000     1.771000000
H    -2.668000000     2.237000000     2.165000000
H    -4.057000000     2.192000000     1.566000000
O    -4.850000000     1.709000000    -2.738000000
H    -3.893000000     1.702000000    -2.718000000
H    -5.082000000     0.980000000    -3.314000000
O     0.161000000     2.718000000     5.652000000
H     0.864000000     2.166000000     5.311000000
H     0.603000000     3.332000000     6.239000000
