158
-3034.21999
C    -0.295000000     1.219000000     0.726000000
H    -0.418000000     2.106000000     1.342000000
C     0.398000000     0.120000000     1.238000000
H     0.886000000     0.154000000     2.209000000
C     0.567000000    -1.012000000     0.501000000
H     1.301000000    -1.721000000     0.929000000
C     0.018000000    -1.080000000    -0.793000000
H     0.096000000    -1.950000000    -1.440000000
C    -0.655000000     0.017000000    -1.312000000
H    -0.986000000    -0.062000000    -2.344000000
C    -0.883000000     1.212000000    -0.561000000
C    -1.595000000     2.399000000    -1.189000000
O    -1.848000000     3.377000000    -0.549000000
O    -1.899000000     2.275000000    -2.399000000
O    -0.379000000    -4.935000000     4.690000000
H    -0.485000000    -5.062000000     5.633000000
H    -0.898000000    -5.636000000     4.295000000
O     2.602000000     2.188000000    -0.502000000
H     3.507000000     2.439000000    -0.687000000
H     2.542000000     2.192000000     0.453000000
O    -2.782000000     4.859000000     1.388000000
H    -2.529000000     4.423000000     0.575000000
H    -3.460000000     5.482000000     1.125000000
O     1.150000000    -5.680000000    -3.448000000
H     1.048000000    -4.743000000    -3.612000000
H     0.306000000    -5.955000000    -3.091000000
O    -1.875000000     5.252000000     4.069000000
H    -2.346000000     5.077000000     3.254000000
H    -1.287000000     4.504000000     4.171000000
O    -2.857000000     4.922000000    -3.826000000
H    -3.309000000     4.334000000    -4.431000000
H    -2.751000000     4.407000000    -3.026000000
O    -3.098000000     2.635000000     2.630000000
H    -4.035000000     2.465000000     2.723000000
H    -3.043000000     3.315000000     1.959000000
O    -5.877000000     2.750000000     1.600000000
H    -5.739000000     2.674000000     0.656000000
H    -6.433000000     3.523000000     1.700000000
O     0.841000000    -2.618000000     3.209000000
H     0.250000000    -3.108000000     3.781000000
H     0.898000000    -3.148000000     2.414000000
O     2.672000000    -0.862000000     3.945000000
H     3.213000000    -0.906000000     3.157000000
H     1.940000000    -1.452000000     3.767000000
O     2.729000000     4.896000000    -1.156000000
H     2.299000000     4.041000000    -1.164000000
H     3.472000000     4.795000000    -1.751000000
O    -3.860000000    -0.739000000    -6.039000000
H    -3.585000000    -1.238000000    -5.270000000
H    -4.023000000     0.144000000    -5.706000000
O     0.283000000     7.368000000     0.533000000
H    -0.096000000     6.662000000     0.010000000
H     1.209000000     7.374000000     0.292000000
O    -2.508000000     2.190000000     5.396000000
H    -3.294000000     2.731000000     5.322000000
H    -1.936000000     2.500000000     4.695000000
O    -3.734000000     0.367000000    -3.194000000
H    -3.406000000    -0.486000000    -2.909000000
H    -3.108000000     0.996000000    -2.836000000
O     0.534000000     4.014000000    -3.545000000
H     1.434000000     3.909000000    -3.852000000
H     0.285000000     3.145000000    -3.230000000
O     4.309000000    -1.863000000     1.621000000
H     3.762000000    -2.454000000     1.103000000
H     5.195000000    -2.212000000     1.527000000
O     1.553000000    -7.006000000    -0.174000000
H     2.364000000    -7.514000000    -0.183000000
H     0.929000000    -7.558000000     0.298000000
O     2.262000000     2.588000000     2.474000000
H     2.340000000     1.745000000     2.920000000
H     3.161000000     2.816000000     2.235000000
O    -2.080000000    -0.009000000     3.156000000
H    -2.342000000     0.905000000     3.051000000
H    -1.129000000     0.001000000     3.051000000
O     3.399000000    -3.567000000    -0.297000000
H     4.335000000    -3.577000000    -0.494000000
H     3.310000000    -4.132000000     0.471000000
O     0.216000000     2.930000000     4.245000000
H     0.612000000     2.214000000     4.742000000
H     0.882000000     3.171000000     3.601000000
O     1.126000000    -3.114000000    -4.189000000
H     0.680000000    -2.462000000    -4.729000000
H     2.054000000    -2.887000000    -4.256000000
O     2.830000000     1.212000000    -5.477000000
H     2.255000000     1.215000000    -6.242000000
H     2.235000000     1.277000000    -4.730000000
O    -0.682000000     5.683000000    -5.288000000
H    -0.122000000     5.088000000    -4.789000000
H    -1.496000000     5.722000000    -4.786000000
O     3.676000000    -0.857000000    -3.786000000
H     3.484000000    -0.059000000    -4.279000000
H     3.661000000    -0.582000000    -2.869000000
O     3.307000000    -5.303000000     1.884000000
H     4.108000000    -5.531000000     2.355000000
H     3.100000000    -6.085000000     1.372000000
O    -3.565000000     2.911000000    -5.826000000
H    -4.495000000     2.756000000    -5.661000000
H    -3.493000000     2.939000000    -6.780000000
O     0.904000000    -4.336000000     0.106000000
H     0.891000000    -5.289000000     0.020000000
H     1.600000000    -4.050000000    -0.485000000
O    -2.845000000    -2.179000000     1.749000000
H    -2.477000000    -1.394000000     2.153000000
H    -3.546000000    -1.853000000     1.186000000
O     6.673000000    -0.961000000     3.377000000
H     6.107000000    -1.281000000     2.675000000
H     6.983000000    -1.754000000     3.815000000
O     4.315000000    -1.717000000     5.985000000
H     3.555000000    -1.594000000     5.416000000
H     4.655000000    -2.579000000     5.747000000
O    -3.076000000    -1.929000000    -1.853000000
H    -3.805000000    -2.232000000    -1.312000000
H    -2.301000000    -2.062000000    -1.307000000
O     2.616000000     5.395000000     2.065000000
H     3.422000000     4.879000000     2.052000000
H     1.920000000     4.757000000     1.909000000
O    -2.129000000     8.031000000    -1.012000000
H    -1.963000000     7.233000000    -1.515000000
H    -1.553000000     7.958000000    -0.251000000
O     1.686000000     1.211000000    -2.938000000
H     1.152000000     0.425000000    -2.824000000
H     1.939000000     1.461000000    -2.049000000
O    -0.214000000    -0.941000000    -5.609000000
H    -1.021000000    -1.431000000    -5.453000000
H    -0.344000000    -0.112000000    -5.147000000
O    -1.147000000     1.378000000    -4.827000000
H    -1.280000000     1.799000000    -3.978000000
H    -1.785000000     1.796000000    -5.405000000
O    -4.573000000     3.233000000    -2.306000000
H    -5.025000000     2.567000000    -1.787000000
H    -3.658000000     2.954000000    -2.310000000
O    -4.854000000     6.427000000     0.111000000
H    -5.720000000     6.634000000    -0.241000000
H    -4.245000000     6.894000000    -0.461000000
O     1.207000000     0.711000000     5.590000000
H     1.775000000    -0.009000000     5.316000000
H     1.719000000     1.183000000     6.247000000
O     2.609000000    -4.722000000     4.670000000
H     2.866000000    -5.010000000     3.794000000
H     1.667000000    -4.885000000     4.709000000
O    -2.033000000    -4.139000000     0.137000000
H    -2.307000000    -3.608000000     0.884000000
H    -1.077000000    -4.109000000     0.159000000
O    -0.640000000     5.616000000    -1.262000000
H    -1.043000000     4.999000000    -0.651000000
H    -0.580000000     5.133000000    -2.086000000
O    -5.929000000     1.499000000    -0.963000000
H    -5.650000000     0.700000000    -0.516000000
H    -6.798000000     1.290000000    -1.308000000
O     3.542000000    -0.624000000    -1.135000000
H     2.998000000    -0.110000000    -0.538000000
H     3.347000000    -1.535000000    -0.913000000
O    -1.189000000     0.172000000     6.879000000
H    -0.419000000     0.198000000     6.311000000
H    -1.765000000     0.853000000     6.533000000
O    -2.441000000    -2.669000000    -4.588000000
H    -2.822000000    -2.535000000    -3.720000000
H    -2.741000000    -3.539000000    -4.850000000
