158
-3021.70376
C     0.133000000     1.463000000     0.203000000
H     0.341000000     2.521000000     0.338000000
C     1.001000000     0.516000000     0.786000000
H     1.801000000     0.781000000     1.473000000
C     0.746000000    -0.834000000     0.517000000
H     1.352000000    -1.590000000     0.906000000
C    -0.345000000    -1.218000000    -0.259000000
H    -0.388000000    -2.304000000    -0.258000000
C    -1.159000000    -0.267000000    -0.840000000
H    -1.979000000    -0.605000000    -1.469000000
C    -0.898000000     1.112000000    -0.695000000
C    -1.782000000     2.106000000    -1.348000000
O    -1.530000000     3.309000000    -1.283000000
O    -2.713000000     1.754000000    -2.084000000
O    -7.692000000     3.418000000    -2.075000000
H    -6.784000000     3.119000000    -2.026000000
H    -7.932000000     3.305000000    -2.995000000
O     2.217000000     1.779000000    -1.661000000
H     1.605000000     1.223000000    -1.178000000
H     2.935000000     1.933000000    -1.047000000
O    -2.622000000    -1.105000000     2.335000000
H    -3.439000000    -1.328000000     2.779000000
H    -2.882000000    -0.919000000     1.433000000
O     4.484000000     2.467000000    -0.468000000
H     4.616000000     2.001000000     0.358000000
H     5.116000000     2.073000000    -1.069000000
O    -1.995000000     4.919000000     0.950000000
H    -1.720000000     4.215000000     0.362000000
H    -1.608000000     4.690000000     1.795000000
O    -3.046000000     3.738000000    -5.412000000
H    -3.285000000     2.844000000    -5.167000000
H    -2.362000000     3.982000000    -4.789000000
O    -3.087000000    -2.223000000    -3.523000000
H    -2.180000000    -2.084000000    -3.796000000
H    -3.038000000    -2.932000000    -2.882000000
O    -2.713000000     7.674000000     1.614000000
H    -3.467000000     7.156000000     1.895000000
H    -2.233000000     7.096000000     1.021000000
O    -5.634000000    -0.691000000    -2.189000000
H    -6.143000000    -0.393000000    -2.944000000
H    -4.954000000    -1.250000000    -2.565000000
O    -0.719000000    -3.260000000     2.790000000
H    -1.405000000    -2.611000000     2.948000000
H    -1.181000000    -4.010000000     2.415000000
O    -4.889000000     3.678000000     1.008000000
H    -4.201000000     4.326000000     0.858000000
H    -5.439000000     4.066000000     1.689000000
O     2.749000000    -6.423000000     3.029000000
H     2.744000000    -5.486000000     2.834000000
H     3.292000000    -6.502000000     3.813000000
O     1.166000000     2.567000000    -4.323000000
H     1.533000000     2.627000000    -3.441000000
H     0.323000000     3.017000000    -4.262000000
O     4.989000000     1.775000000     2.104000000
H     4.545000000     2.276000000     2.788000000
H     4.792000000     0.861000000     2.309000000
O     2.587000000     4.144000000     1.492000000
H     3.000000000     4.817000000     2.033000000
H     3.270000000     3.880000000     0.875000000
O    -0.341000000    -2.918000000     5.563000000
H     0.593000000    -3.122000000     5.604000000
H    -0.584000000    -3.093000000     4.654000000
O     5.690000000    -2.900000000     0.416000000
H     6.132000000    -3.272000000    -0.347000000
H     6.338000000    -2.952000000     1.118000000
O    -2.802000000    -3.540000000    -1.062000000
H    -3.073000000    -2.740000000    -0.612000000
H    -2.942000000    -4.235000000    -0.419000000
O    -0.334000000     4.365000000     5.314000000
H    -0.101000000     5.192000000     5.735000000
H    -0.101000000     4.491000000     4.394000000
O     3.868000000     3.489000000    -3.261000000
H     3.389000000     3.186000000    -2.489000000
H     3.379000000     4.257000000    -3.559000000
O     2.476000000    -3.252000000     5.205000000
H     2.460000000    -2.644000000     5.944000000
H     3.219000000    -3.828000000     5.386000000
O     4.242000000    -1.120000000     2.076000000
H     4.313000000    -1.444000000     2.974000000
H     4.673000000    -1.790000000     1.545000000
O    -0.435000000    -6.797000000     3.614000000
H     0.267000000    -6.519000000     4.202000000
H     0.004000000    -7.337000000     2.957000000
O    -0.517000000    -1.649000000    -4.197000000
H    -0.446000000    -0.928000000    -4.822000000
H     0.287000000    -1.597000000    -3.680000000
O     3.260000000    -3.741000000     0.165000000
H     4.208000000    -3.627000000     0.231000000
H     2.930000000    -3.505000000     1.032000000
O    -2.849000000     7.018000000    -3.198000000
H    -2.846000000     6.214000000    -3.718000000
H    -2.206000000     6.859000000    -2.508000000
O     2.113000000    -1.992000000    -2.841000000
H     2.452000000    -2.884000000    -2.775000000
H     1.789000000    -1.793000000    -1.963000000
O     3.952000000     2.909000000     4.388000000
H     4.573000000     2.861000000     5.115000000
H     3.143000000     2.536000000     4.739000000
O     2.648000000    -6.911000000    -0.596000000
H     1.713000000    -6.825000000    -0.411000000
H     2.969000000    -6.010000000    -0.635000000
O    -0.034000000    -5.790000000    -1.048000000
H    -0.332000000    -6.682000000    -0.869000000
H    -0.834000000    -5.310000000    -1.265000000
O     1.088000000     0.993000000     6.203000000
H     0.641000000     1.467000000     6.905000000
H     0.588000000     1.205000000     5.415000000
O    -3.136000000    -5.394000000     0.948000000
H    -4.072000000    -5.574000000     1.029000000
H    -2.714000000    -6.233000000     1.134000000
O     2.411000000    -5.005000000    -3.482000000
H     1.872000000    -5.242000000    -2.727000000
H     1.781000000    -4.732000000    -4.149000000
O    -0.866000000     6.438000000    -1.318000000
H     0.022000000     6.210000000    -1.592000000
H    -1.094000000     5.775000000    -0.667000000
O     5.503000000    -3.069000000     3.903000000
H     6.272000000    -3.608000000     3.717000000
H     5.828000000    -2.170000000     3.875000000
O    -1.037000000     0.499000000    -5.654000000
H    -0.567000000     1.253000000    -6.010000000
H    -1.947000000     0.791000000    -5.592000000
O     1.278000000     5.852000000    -2.782000000
H     1.905000000     5.652000000    -3.477000000
H     1.706000000     6.532000000    -2.261000000
O    -3.772000000     1.222000000    -4.673000000
H    -4.506000000     0.795000000    -4.232000000
H    -3.120000000     1.349000000    -3.985000000
O    -5.030000000     2.936000000    -1.564000000
H    -4.237000000     2.541000000    -1.929000000
H    -4.785000000     3.183000000    -0.672000000
O     2.224000000    -3.432000000     2.622000000
H     1.308000000    -3.222000000     2.439000000
H     2.328000000    -3.255000000     3.557000000
O    -0.010000000    -4.492000000    -4.794000000
H    -0.442000000    -3.671000000    -4.558000000
H    -0.482000000    -4.796000000    -5.570000000
O    -0.059000000     3.692000000     2.624000000
H     0.842000000     3.650000000     2.304000000
H    -0.295000000     2.780000000     2.794000000
O    -1.054000000     4.281000000    -3.743000000
H    -1.342000000     3.662000000    -3.072000000
H    -0.339000000     4.766000000    -3.331000000
O    -5.546000000    -3.437000000    -4.147000000
H    -5.772000000    -3.523000000    -3.221000000
H    -4.688000000    -3.011000000    -4.146000000
O    -0.959000000     0.941000000     3.173000000
H    -1.638000000     0.271000000     3.246000000
H    -0.225000000     0.494000000     2.751000000
O    -5.622000000    -1.419000000     2.157000000
H    -6.224000000    -0.763000000     2.508000000
H    -5.117000000    -0.949000000     1.493000000
O     1.839000000    -0.200000000    -5.208000000
H     2.308000000    -0.826000000    -4.657000000
H     1.480000000     0.439000000    -4.593000000
O    -4.194000000    -0.153000000     0.220000000
H    -4.652000000    -0.414000000    -0.580000000
H    -4.010000000     0.778000000     0.097000000
