158
-3050.14263
C     0.692000000    -1.270000000    -0.343000000
H     1.370000000    -2.110000000    -0.472000000
C     1.254000000    -0.034000000    -0.105000000
H     2.327000000     0.113000000    -0.020000000
C     0.497000000     1.114000000     0.063000000
H     0.911000000     2.098000000     0.245000000
C    -0.911000000     1.075000000     0.008000000
H    -1.489000000     1.972000000     0.216000000
C    -1.432000000    -0.250000000    -0.061000000
H    -2.467000000    -0.423000000     0.222000000
C    -0.669000000    -1.426000000    -0.332000000
C    -1.352000000    -2.745000000    -0.244000000
O    -2.557000000    -2.801000000    -0.399000000
O    -0.667000000    -3.787000000    -0.306000000
O     3.496000000     2.866000000    -1.604000000
H     3.666000000     3.100000000    -0.691000000
H     2.556000000     3.005000000    -1.716000000
O     0.934000000     0.766000000    -2.931000000
H     1.637000000     0.118000000    -2.973000000
H     0.896000000     1.019000000    -2.009000000
O     0.056000000     5.916000000     0.184000000
H    -0.189000000     6.004000000    -0.737000000
H     0.264000000     6.807000000     0.464000000
O     1.134000000    -3.670000000     1.951000000
H     0.712000000    -3.555000000     1.100000000
H     0.868000000    -2.902000000     2.456000000
O    -6.806000000    -4.906000000     0.725000000
H    -6.473000000    -5.732000000     0.373000000
H    -6.030000000    -4.460000000     1.064000000
O     5.208000000     2.740000000    -3.660000000
H     4.565000000     2.678000000    -2.954000000
H     4.799000000     3.315000000    -4.307000000
O    -2.563000000    -2.430000000    -3.206000000
H    -2.538000000    -3.267000000    -3.670000000
H    -2.693000000    -2.669000000    -2.288000000
O     1.761000000     5.594000000     4.045000000
H     1.657000000     4.795000000     4.561000000
H     0.997000000     6.125000000     4.268000000
O    -3.580000000     0.139000000     3.291000000
H    -2.748000000     0.171000000     3.763000000
H    -4.161000000    -0.361000000     3.864000000
O    -0.569000000     4.433000000     2.316000000
H     0.146000000     4.700000000     2.893000000
H    -0.501000000     5.020000000     1.563000000
O    -0.510000000     1.706000000     2.710000000
H    -0.339000000     1.393000000     1.821000000
H    -0.560000000     2.658000000     2.623000000
O     2.334000000     3.136000000    -4.984000000
H     1.699000000     3.588000000    -5.538000000
H     1.806000000     2.541000000    -4.451000000
O    -1.021000000    -8.708000000    -0.819000000
H    -0.650000000    -9.165000000    -0.064000000
H    -1.794000000    -8.262000000    -0.473000000
O     4.835000000    -0.170000000    -0.589000000
H     5.241000000     0.457000000    -1.187000000
H     4.074000000    -0.499000000    -1.068000000
O     4.662000000     6.635000000    -0.986000000
H     3.778000000     6.484000000    -0.653000000
H     4.538000000     6.829000000    -1.915000000
O     3.256000000     1.014000000     3.118000000
H     3.825000000     0.275000000     2.899000000
H     3.636000000     1.756000000     2.647000000
O     2.830000000    -1.317000000    -2.921000000
H     2.179000000    -1.795000000    -3.435000000
H     3.293000000    -1.996000000    -2.431000000
O     0.811000000    -1.120000000     3.087000000
H     1.593000000    -0.578000000     3.192000000
H     0.116000000    -0.497000000     2.872000000
O    -6.541000000    -0.556000000    -3.073000000
H    -7.368000000    -1.030000000    -3.160000000
H    -5.908000000    -1.225000000    -2.815000000
O     0.443000000    -2.554000000    -4.695000000
H     0.437000000    -3.237000000    -4.024000000
H    -0.239000000    -1.942000000    -4.419000000
O    -6.085000000    -4.374000000    -2.346000000
H    -7.027000000    -4.521000000    -2.260000000
H    -5.947000000    -3.496000000    -1.990000000
O    -4.179000000     4.774000000    -2.324000000
H    -3.841000000     4.569000000    -1.452000000
H    -4.806000000     4.074000000    -2.507000000
O     2.198000000     2.821000000     5.109000000
H     2.144000000     2.093000000     4.489000000
H     3.032000000     2.692000000     5.559000000
O     3.260000000     6.124000000     1.694000000
H     4.107000000     5.961000000     2.110000000
H     2.620000000     5.750000000     2.300000000
O     0.741000000    -6.920000000    -1.888000000
H     0.174000000    -7.569000000    -1.473000000
H     1.524000000    -6.899000000    -1.338000000
O    -5.410000000    -6.688000000    -1.014000000
H    -5.489000000    -6.077000000    -1.746000000
H    -4.513000000    -6.572000000    -0.700000000
O     5.685000000     1.470000000     1.447000000
H     5.333000000     0.865000000     0.794000000
H     5.386000000     2.333000000     1.160000000
O    -1.319000000     0.084000000     4.815000000
H    -1.080000000     0.873000000     4.330000000
H    -0.913000000     0.198000000     5.674000000
O    -2.867000000     3.890000000    -0.175000000
H    -2.191000000     4.214000000     0.420000000
H    -3.315000000     3.205000000     0.322000000
O    -2.523000000    -5.548000000    -3.860000000
H    -2.534000000    -6.061000000    -3.052000000
H    -1.678000000    -5.099000000    -3.848000000
O     0.657000000    -7.999000000     1.438000000
H     1.385000000    -7.651000000     1.953000000
H    -0.071000000    -7.404000000     1.619000000
O     6.781000000    -1.656000000     0.834000000
H     6.301000000    -1.713000000     1.660000000
H     6.104000000    -1.709000000     0.159000000
O    -2.586000000    -2.626000000     5.147000000
H    -2.083000000    -2.131000000     4.501000000
H    -3.017000000    -1.957000000     5.678000000
O     0.122000000    -4.501000000    -2.823000000
H    -0.152000000    -4.362000000    -1.917000000
H     0.484000000    -5.387000000    -2.831000000
O    -2.655000000    -5.659000000    -0.977000000
H    -2.459000000    -4.743000000    -0.780000000
H    -2.273000000    -6.148000000    -0.249000000
O     1.533000000    -6.188000000     3.431000000
H     1.469000000    -5.380000000     2.923000000
H     2.138000000    -5.977000000     4.142000000
O    -1.136000000     6.056000000    -2.219000000
H    -1.849000000     6.561000000    -1.827000000
H    -1.570000000     5.470000000    -2.838000000
O    -4.917000000    -2.048000000    -1.168000000
H    -4.021000000    -2.345000000    -1.014000000
H    -5.256000000    -1.844000000    -0.296000000
O    -1.129000000    -5.752000000     1.212000000
H    -0.894000000    -5.029000000     0.631000000
H    -1.403000000    -5.327000000     2.025000000
O     4.579000000     3.901000000     0.735000000
H     3.949000000     4.587000000     0.956000000
H     5.326000000     4.372000000     0.366000000
O    -4.166000000    -4.410000000     1.287000000
H    -3.714000000    -3.674000000     0.876000000
H    -3.788000000    -4.463000000     2.165000000
O    -5.368000000    -1.026000000     1.339000000
H    -4.728000000    -0.505000000     1.824000000
H    -6.153000000    -1.011000000     1.886000000
O    -2.287000000    -4.961000000     3.661000000
H    -2.094000000    -5.708000000     4.229000000
H    -2.134000000    -4.195000000     4.214000000
O    -1.626000000    -0.182000000    -4.349000000
H    -2.076000000    -0.945000000    -3.986000000
H    -1.009000000     0.079000000    -3.666000000
O     3.772000000    -3.466000000    -1.560000000
H     3.829000000    -3.061000000    -0.695000000
H     3.770000000    -4.407000000    -1.385000000
O    -0.415000000     4.098000000     5.557000000
H    -0.692000000     4.084000000     6.473000000
H     0.354000000     3.528000000     5.531000000
O    -4.309000000     2.325000000     2.009000000
H    -3.900000000     1.660000000     2.562000000
H    -5.176000000     2.456000000     2.394000000
O     3.736000000    -2.644000000     1.006000000
H     4.180000000    -2.311000000     1.787000000
H     2.955000000    -3.083000000     1.343000000
