158
-3033.14230
C     0.046000000     0.605000000     1.371000000
H    -0.014000000     0.909000000     2.413000000
C     0.111000000    -0.790000000     1.089000000
H     0.125000000    -1.529000000     1.885000000
C    -0.100000000    -1.229000000    -0.230000000
H    -0.116000000    -2.327000000    -0.498000000
C    -0.099000000    -0.278000000    -1.264000000
H    -0.004000000    -0.648000000    -2.282000000
C     0.007000000     1.072000000    -1.033000000
H    -0.092000000     1.782000000    -1.850000000
C     0.036000000     1.526000000     0.298000000
C     0.070000000     3.023000000     0.492000000
O     0.617000000     3.569000000     1.453000000
O    -0.195000000     3.668000000    -0.539000000
O     0.096000000    -5.110000000    -0.981000000
H    -0.514000000    -4.486000000    -1.374000000
H    -0.240000000    -5.969000000    -1.238000000
O     2.789000000    -0.644000000    -0.179000000
H     3.126000000     0.156000000    -0.583000000
H     1.841000000    -0.518000000    -0.154000000
O     0.549000000     6.094000000     2.583000000
H     0.509000000     5.193000000     2.263000000
H     0.689000000     6.008000000     3.525000000
O    -1.434000000    -6.241000000    -4.555000000
H    -2.362000000    -6.460000000    -4.473000000
H    -1.005000000    -6.758000000    -3.873000000
O    -0.638000000    -4.878000000     5.241000000
H    -0.961000000    -4.065000000     5.629000000
H    -1.385000000    -5.224000000     4.752000000
O     3.689000000     1.621000000    -1.290000000
H     4.569000000     1.766000000    -1.638000000
H     3.268000000     2.479000000    -1.340000000
O    -3.578000000     6.184000000    -1.889000000
H    -4.383000000     6.279000000    -1.379000000
H    -3.840000000     5.676000000    -2.658000000
O     0.615000000    -1.229000000     4.541000000
H    -0.311000000    -1.196000000     4.301000000
H     0.720000000    -2.076000000     4.975000000
O     3.354000000    -1.107000000     4.549000000
H     3.674000000    -1.357000000     3.683000000
H     2.448000000    -0.837000000     4.401000000
O     3.383000000     5.487000000     3.333000000
H     2.989000000     5.545000000     2.463000000
H     3.102000000     4.634000000     3.667000000
O     0.187000000    -3.792000000    -3.895000000
H    -0.490000000    -3.458000000    -3.308000000
H    -0.239000000    -4.504000000    -4.372000000
O     2.559000000     4.541000000    -2.401000000
H     3.461000000     4.614000000    -2.713000000
H     2.028000000     4.568000000    -3.197000000
O     2.919000000     4.199000000     0.423000000
H     2.086000000     3.958000000     0.830000000
H     2.679000000     4.500000000    -0.453000000
O    -2.809000000    -0.201000000    -3.507000000
H    -3.195000000    -1.007000000    -3.164000000
H    -2.447000000    -0.452000000    -4.357000000
O    -0.868000000     6.067000000    -1.906000000
H    -1.807000000     6.201000000    -1.775000000
H    -0.703000000     5.185000000    -1.573000000
O     4.071000000    -1.911000000     1.972000000
H     3.824000000    -1.451000000     1.170000000
H     4.960000000    -2.224000000     1.806000000
O    -2.421000000    -5.666000000     3.360000000
H    -1.879000000    -5.046000000     2.873000000
H    -3.243000000    -5.701000000     2.871000000
O     2.100000000    -3.635000000     2.559000000
H     2.669000000    -2.881000000     2.401000000
H     2.535000000    -4.120000000     3.261000000
O     2.308000000    -5.722000000    -3.899000000
H     3.075000000    -5.287000000    -3.528000000
H     1.566000000    -5.195000000    -3.602000000
O     4.372000000    -6.018000000     2.327000000
H     4.445000000    -5.459000000     3.100000000
H     3.676000000    -5.618000000     1.806000000
O    -3.844000000     1.060000000     4.814000000
H    -3.455000000     0.244000000     4.500000000
H    -4.482000000     1.296000000     4.141000000
O     2.626000000    -4.432000000    -0.074000000
H     1.752000000    -4.734000000    -0.322000000
H     2.483000000    -3.901000000     0.709000000
O     1.982000000     2.900000000     3.800000000
H     1.350000000     2.703000000     3.109000000
H     1.481000000     3.394000000     4.449000000
O     1.184000000     5.133000000    -4.660000000
H     0.641000000     5.908000000    -4.806000000
H     1.141000000     4.652000000    -5.486000000
O    -2.128000000    -4.265000000    -2.028000000
H    -2.650000000    -3.468000000    -1.935000000
H    -2.636000000    -4.938000000    -1.575000000
O     3.880000000    -4.032000000    -2.339000000
H     3.631000000    -4.317000000    -1.460000000
H     4.697000000    -3.548000000    -2.212000000
O     3.493000000     0.106000000    -4.411000000
H     4.143000000    -0.496000000    -4.773000000
H     4.010000000     0.793000000    -3.992000000
O     2.334000000    -2.954000000    -5.670000000
H     1.737000000    -3.407000000    -6.266000000
H     2.200000000    -3.383000000    -4.825000000
O    -3.818000000    -0.764000000     1.776000000
H    -3.856000000    -0.462000000     0.868000000
H    -2.886000000    -0.752000000     1.993000000
O     3.859000000     1.260000000     2.356000000
H     3.120000000     1.721000000     2.753000000
H     3.716000000     1.347000000     1.413000000
O     5.815000000     3.788000000     0.960000000
H     4.881000000     3.764000000     0.754000000
H     5.973000000     4.686000000     1.252000000
O    -2.323000000     3.172000000     5.471000000
H    -2.704000000     3.847000000     4.909000000
H    -2.838000000     2.387000000     5.285000000
O    -2.419000000    -1.713000000     4.476000000
H    -2.624000000    -2.648000000     4.502000000
H    -2.388000000    -1.450000000     5.396000000
O     1.692000000     7.158000000    -2.184000000
H     2.062000000     6.277000000    -2.219000000
H     0.755000000     7.019000000    -2.047000000
O     0.647000000    -0.612000000    -4.991000000
H     1.260000000    -0.088000000    -4.475000000
H     1.134000000    -1.406000000    -5.209000000
O    -2.848000000     2.927000000    -1.327000000
H    -1.977000000     3.126000000    -0.984000000
H    -2.747000000     2.970000000    -2.278000000
O    -2.031000000     3.546000000    -4.232000000
H    -1.153000000     3.893000000    -4.079000000
H    -1.891000000     2.773000000    -4.778000000
O    -3.970000000     0.439000000    -0.894000000
H    -3.953000000     1.387000000    -0.759000000
H    -3.301000000     0.280000000    -1.560000000
O    -3.332000000     5.072000000     3.485000000
H    -3.007000000     4.904000000     2.601000000
H    -4.240000000     5.347000000     3.359000000
O     0.307000000     4.664000000     5.283000000
H     0.370000000     5.221000000     6.059000000
H    -0.509000000     4.178000000     5.402000000
O    -0.129000000    -4.304000000     1.602000000
H     0.083000000    -4.737000000     0.775000000
H     0.716000000    -4.194000000     2.039000000
O    -0.454000000     7.770000000     0.751000000
H     0.050000000     7.222000000     1.354000000
H    -0.591000000     7.216000000    -0.017000000
O    -0.754000000     1.631000000    -6.612000000
H    -0.041000000     2.241000000    -6.803000000
H    -0.320000000     0.871000000    -6.225000000
O     5.307000000    -1.776000000    -1.353000000
H     4.373000000    -1.814000000    -1.146000000
H     5.648000000    -1.078000000    -0.794000000
O    -4.717000000    -5.586000000     1.283000000
H    -5.517000000    -5.899000000     1.706000000
H    -4.970000000    -4.756000000     0.878000000
O    -4.235000000    -2.406000000    -2.085000000
H    -4.766000000    -2.897000000    -2.712000000
H    -4.626000000    -2.604000000    -1.234000000
O    -1.815000000    -1.077000000    -6.025000000
H    -1.742000000    -2.031000000    -6.034000000
H    -1.037000000    -0.782000000    -5.552000000
O    -2.423000000     4.853000000     0.937000000
H    -2.711000000     4.292000000     0.217000000
H    -1.475000000     4.917000000     0.827000000
