158
-3059.25508
C     0.793000000     0.780000000     0.987000000
H     1.411000000     1.229000000     1.761000000
C     0.921000000    -0.526000000     0.667000000
H     1.679000000    -1.046000000     1.247000000
C     0.130000000    -1.190000000    -0.265000000
H     0.299000000    -2.218000000    -0.511000000
C    -0.900000000    -0.522000000    -0.921000000
H    -1.462000000    -1.032000000    -1.699000000
C    -1.095000000     0.857000000    -0.593000000
H    -1.905000000     1.357000000    -1.116000000
C    -0.162000000     1.518000000     0.283000000
C    -0.354000000     3.019000000     0.540000000
O     0.309000000     3.546000000     1.426000000
O    -1.148000000     3.685000000    -0.132000000
O    -0.814000000    -3.307000000    -5.140000000
H    -1.253000000    -2.480000000    -5.344000000
H     0.099000000    -3.160000000    -5.388000000
O     4.107000000     0.909000000    -2.951000000
H     4.266000000     1.060000000    -2.020000000
H     4.968000000     0.688000000    -3.308000000
O     2.861000000    -0.608000000     3.683000000
H     3.180000000     0.218000000     3.319000000
H     3.219000000    -1.280000000     3.103000000
O    -3.679000000     6.525000000    -1.063000000
H    -3.501000000     5.788000000    -0.479000000
H    -2.949000000     7.128000000    -0.917000000
O    -2.708000000    -6.181000000    -2.052000000
H    -3.606000000    -5.935000000    -1.831000000
H    -2.439000000    -6.767000000    -1.344000000
O     1.403000000     4.321000000     6.155000000
H     1.970000000     4.300000000     5.384000000
H     1.726000000     5.060000000     6.670000000
O    -1.793000000     2.950000000    -4.135000000
H    -1.648000000     2.766000000    -5.063000000
H    -2.611000000     2.500000000    -3.926000000
O    -4.417000000     3.861000000     1.179000000
H    -3.967000000     3.093000000     1.530000000
H    -3.718000000     4.493000000     1.011000000
O     3.539000000     0.672000000     6.223000000
H     3.950000000    -0.079000000     6.650000000
H     3.085000000     0.298000000     5.467000000
O     1.745000000     7.068000000     0.226000000
H     1.354000000     7.406000000    -0.580000000
H     2.373000000     6.409000000    -0.071000000
O    -3.681000000     1.421000000     2.531000000
H    -2.793000000     1.410000000     2.889000000
H    -4.249000000     1.331000000     3.296000000
O    -0.915000000     3.026000000     5.981000000
H    -0.879000000     2.208000000     6.476000000
H    -0.038000000     3.398000000     6.069000000
O    -1.186000000     2.054000000     3.383000000
H    -1.124000000     2.449000000     4.252000000
H    -0.623000000     2.599000000     2.832000000
O     2.166000000    -3.674000000    -2.947000000
H     1.226000000    -3.849000000    -2.893000000
H     2.227000000    -2.833000000    -3.400000000
O     1.712000000    -5.456000000     3.319000000
H     2.272000000    -6.230000000     3.389000000
H     0.903000000    -5.781000000     2.924000000
O    -6.129000000    -1.767000000    -3.581000000
H    -5.734000000    -0.992000000    -3.181000000
H    -6.651000000    -2.158000000    -2.881000000
O     0.199000000     3.863000000    -2.729000000
H    -0.549000000     3.657000000    -3.289000000
H    -0.175000000     3.960000000    -1.854000000
O     3.595000000     1.369000000    -0.156000000
H     4.132000000     0.840000000     0.435000000
H     2.737000000     0.946000000    -0.144000000
O     2.306000000    -0.904000000    -3.828000000
H     1.549000000    -0.318000000    -3.806000000
H     2.953000000    -0.482000000    -3.264000000
O    -1.839000000    -1.205000000     1.763000000
H    -1.066000000    -1.109000000     1.207000000
H    -2.472000000    -0.584000000     1.403000000
O     0.218000000    -0.662000000     4.363000000
H    -0.151000000    -0.138000000     3.651000000
H     1.165000000    -0.557000000     4.272000000
O    -5.221000000     0.065000000    -1.880000000
H    -4.743000000    -0.256000000    -1.115000000
H    -5.411000000     0.981000000    -1.676000000
O    -4.401000000    -2.787000000    -5.587000000
H    -4.744000000    -2.303000000    -4.836000000
H    -3.450000000    -2.720000000    -5.501000000
O     4.050000000    -6.631000000    -1.165000000
H     4.771000000    -6.373000000    -0.592000000
H     3.952000000    -7.572000000    -1.018000000
O     6.205000000    -3.421000000     1.607000000
H     5.361000000    -3.009000000     1.793000000
H     6.000000000    -4.351000000     1.509000000
O    -1.618000000    -2.460000000     5.142000000
H    -1.000000000    -1.821000000     4.786000000
H    -1.430000000    -3.267000000     4.664000000
O    -4.002000000    -6.423000000     1.996000000
H    -4.876000000    -6.037000000     1.934000000
H    -3.405000000    -5.683000000     1.884000000
O     5.319000000     0.378000000     1.911000000
H     5.872000000     1.131000000     1.700000000
H     5.842000000    -0.138000000     2.525000000
O     1.213000000    -5.619000000    -0.602000000
H     1.007000000    -5.030000000    -1.328000000
H     2.139000000    -5.829000000    -0.718000000
O     4.137000000    -3.765000000    -5.108000000
H     3.786000000    -4.097000000    -4.281000000
H     5.077000000    -3.935000000    -5.055000000
O     1.696000000    -2.945000000    -5.884000000
H     1.849000000    -2.240000000    -5.255000000
H     2.493000000    -3.474000000    -5.851000000
O     3.317000000     4.537000000     4.088000000
H     4.255000000     4.721000000     4.037000000
H     3.120000000     4.072000000     3.275000000
O    -2.333000000     5.615000000     1.125000000
H    -1.721000000     6.176000000     1.600000000
H    -1.799000000     4.881000000     0.822000000
O    -1.347000000     5.430000000     4.504000000
H    -0.911000000     4.711000000     4.961000000
H    -0.820000000     5.569000000     3.717000000
O    -0.351000000    -4.281000000    -2.554000000
H    -0.826000000    -4.010000000    -3.339000000
H    -0.925000000    -4.923000000    -2.137000000
O    -0.246000000    -5.949000000     1.484000000
H    -0.986000000    -6.506000000     1.243000000
H     0.176000000    -5.737000000     0.651000000
O     3.389000000    -3.036000000     1.956000000
H     3.356000000    -2.634000000     1.088000000
H     2.976000000    -3.891000000     1.840000000
O    -2.188000000    -1.272000000    -5.929000000
H    -2.609000000    -0.418000000    -5.831000000
H    -1.858000000    -1.274000000    -6.828000000
O    -3.694000000     0.816000000    -3.978000000
H    -4.367000000     1.276000000    -4.480000000
H    -4.184000000     0.233000000    -3.399000000
O    -3.473000000     6.636000000    -3.840000000
H    -3.401000000     6.467000000    -2.900000000
H    -3.174000000     7.540000000    -3.944000000
O     3.192000000     3.767000000     1.671000000
H     2.275000000     3.791000000     1.398000000
H     3.654000000     3.389000000     0.923000000
O     0.475000000     5.982000000     2.246000000
H     0.497000000     5.075000000     1.943000000
H     0.873000000     6.483000000     1.534000000
O    -4.637000000    -0.447000000     0.773000000
H    -5.461000000    -0.700000000     1.190000000
H    -4.331000000     0.304000000     1.282000000
O    -2.256000000    -3.894000000     2.294000000
H    -1.369000000    -4.253000000     2.295000000
H    -2.189000000    -3.092000000     1.776000000
O     1.573000000     7.037000000     4.836000000
H     0.892000000     7.708000000     4.854000000
H     1.495000000     6.639000000     3.969000000
O     0.627000000     1.390000000    -3.916000000
H    -0.275000000     1.442000000    -3.599000000
H     1.094000000     2.060000000    -3.418000000
O    -5.529000000     2.449000000    -1.016000000
H    -4.831000000     2.842000000    -0.491000000
H    -6.147000000     3.164000000    -1.165000000
O     3.442000000    -2.354000000    -0.782000000
H     4.302000000    -2.288000000    -1.197000000
H     2.880000000    -2.740000000    -1.454000000
