158
-3033.94524
C     0.248000000     0.853000000     1.142000000
H     0.574000000     1.412000000     2.016000000
C     0.650000000    -0.475000000     1.007000000
H     1.327000000    -0.916000000     1.734000000
C     0.357000000    -1.194000000    -0.161000000
H     0.685000000    -2.212000000    -0.374000000
C    -0.468000000    -0.569000000    -1.130000000
H    -0.728000000    -1.140000000    -2.018000000
C    -0.734000000     0.804000000    -0.973000000
H    -1.361000000     1.234000000    -1.750000000
C    -0.445000000     1.518000000     0.166000000
C    -0.932000000     2.942000000     0.326000000
O    -0.731000000     3.589000000     1.382000000
O    -1.443000000     3.480000000    -0.640000000
O     0.259000000     7.042000000     1.119000000
H     0.109000000     6.787000000     0.208000000
H    -0.539000000     6.777000000     1.576000000
O    -1.611000000     5.131000000    -5.071000000
H    -2.396000000     5.609000000    -5.337000000
H    -0.884000000     5.680000000    -5.367000000
O    -4.692000000    -5.151000000    -2.268000000
H    -3.948000000    -4.627000000    -1.971000000
H    -5.064000000    -4.651000000    -2.994000000
O    -3.934000000     0.657000000    -4.773000000
H    -2.985000000     0.537000000    -4.774000000
H    -4.066000000     1.523000000    -5.160000000
O     2.184000000     1.998000000    -2.764000000
H     1.616000000     1.425000000    -3.278000000
H     3.069000000     1.792000000    -3.066000000
O    -2.950000000    -2.272000000    -3.212000000
H    -3.649000000    -2.493000000    -3.828000000
H    -2.190000000    -2.095000000    -3.766000000
O     2.552000000     4.199000000     4.378000000
H     2.199000000     4.435000000     3.520000000
H     3.501000000     4.263000000     4.272000000
O    -0.132000000    -3.761000000     3.255000000
H     0.410000000    -3.259000000     3.863000000
H     0.441000000    -4.462000000     2.945000000
O    -1.863000000    -2.808000000    -7.013000000
H    -1.507000000    -2.137000000    -6.430000000
H    -2.510000000    -3.270000000    -6.480000000
O     0.667000000     5.846000000     5.325000000
H     0.706000000     5.651000000     6.261000000
H     1.357000000     5.307000000     4.938000000
O     6.558000000    -3.118000000     1.617000000
H     5.639000000    -3.262000000     1.842000000
H     6.905000000    -2.600000000     2.343000000
O     1.388000000    -2.153000000     4.797000000
H     2.129000000    -1.552000000     4.718000000
H     0.617000000    -1.597000000     4.685000000
O     4.586000000    -3.267000000    -4.347000000
H     3.629000000    -3.240000000    -4.319000000
H     4.810000000    -4.135000000    -4.014000000
O     3.045000000    -0.008000000     4.691000000
H     2.698000000     0.811000000     5.045000000
H     3.327000000     0.215000000     3.803000000
O    -2.847000000     1.120000000     3.360000000
H    -3.593000000     1.151000000     3.959000000
H    -2.420000000     1.970000000     3.465000000
O    -1.642000000     2.904000000    -3.438000000
H    -1.613000000     3.669000000    -4.014000000
H    -1.578000000     3.267000000    -2.555000000
O    -4.029000000     2.514000000    -2.153000000
H    -3.369000000     2.311000000    -2.816000000
H    -3.564000000     2.434000000    -1.320000000
O     4.146000000     3.498000000    -1.053000000
H     5.094000000     3.375000000    -1.100000000
H     3.807000000     2.643000000    -0.788000000
O    -1.767000000     6.019000000     2.554000000
H    -2.565000000     5.990000000     3.081000000
H    -1.871000000     5.307000000     1.922000000
O    -3.638000000     4.626000000     0.442000000
H    -2.971000000     4.330000000    -0.177000000
H    -3.580000000     5.582000000     0.418000000
O     1.340000000    -5.697000000     1.860000000
H     1.911000000    -6.182000000     2.456000000
H     0.836000000    -6.373000000     1.408000000
O     4.318000000    -3.034000000    -0.998000000
H     5.001000000    -3.659000000    -1.240000000
H     4.038000000    -3.311000000    -0.125000000
O    -4.345000000    -0.747000000    -1.156000000
H    -3.892000000     0.075000000    -0.969000000
H    -3.696000000    -1.279000000    -1.616000000
O     2.081000000    -5.761000000    -3.574000000
H     1.942000000    -6.277000000    -2.780000000
H     2.938000000    -5.354000000    -3.447000000
O     1.579000000     2.014000000     6.007000000
H     0.862000000     2.347000000     6.546000000
H     1.718000000     2.693000000     5.347000000
O    -6.237000000     0.985000000    -2.070000000
H    -5.487000000     1.571000000    -2.174000000
H    -5.848000000     0.132000000    -1.873000000
O     3.019000000     0.894000000    -0.179000000
H     2.125000000     1.223000000    -0.079000000
H     2.956000000     0.236000000    -0.872000000
O    -2.302000000    -4.048000000    -1.071000000
H    -1.989000000    -3.619000000    -0.274000000
H    -2.448000000    -3.330000000    -1.687000000
O    -1.197000000     3.280000000     3.810000000
H    -1.132000000     3.379000000     2.860000000
H    -1.231000000     4.177000000     4.142000000
O    -2.964000000     7.075000000    -1.231000000
H    -2.060000000     6.767000000    -1.287000000
H    -2.943000000     7.954000000    -1.609000000
O     3.980000000     0.679000000     2.357000000
H     3.576000000     0.634000000     1.490000000
H     4.717000000     0.070000000     2.309000000
O     1.478000000    -3.756000000    -5.318000000
H     1.423000000    -4.274000000    -6.121000000
H     1.515000000    -4.405000000    -4.616000000
O     1.803000000     4.644000000     1.839000000
H     1.618000000     5.509000000     1.472000000
H     1.032000000     4.121000000     1.619000000
O     3.741000000    -4.103000000     1.666000000
H     2.982000000    -4.631000000     1.421000000
H     4.067000000    -4.510000000     2.469000000
O     2.317000000    -6.602000000    -0.875000000
H     2.702000000    -7.375000000    -0.463000000
H     1.565000000    -6.385000000    -0.324000000
O    -5.729000000     4.330000000    -2.553000000
H    -4.994000000     3.720000000    -2.610000000
H    -5.713000000     4.802000000    -3.386000000
O    -0.101000000     1.871000000    -5.421000000
H     0.370000000     2.557000000    -5.894000000
H    -0.535000000     2.329000000    -4.702000000
O    -4.377000000    -1.353000000     3.080000000
H    -4.082000000    -1.869000000     3.830000000
H    -3.681000000    -0.710000000     2.943000000
O     1.704000000     4.481000000    -1.723000000
H     1.288000000     3.969000000    -2.417000000
H     2.437000000     3.938000000    -1.432000000
O    -0.986000000    -6.495000000    -2.417000000
H    -0.977000000    -7.422000000    -2.177000000
H    -0.828000000    -6.033000000    -1.594000000
O     1.642000000    -1.498000000    -4.138000000
H     1.986000000    -1.211000000    -4.984000000
H     1.381000000    -2.408000000    -4.283000000
O    -6.505000000     3.744000000     0.925000000
H    -7.057000000     3.985000000     0.182000000
H    -5.610000000     3.820000000     0.594000000
O    -0.621000000     5.973000000    -1.160000000
H     0.236000000     5.806000000    -1.553000000
H    -0.921000000     5.113000000    -0.865000000
O    -0.613000000    -0.798000000    -5.470000000
H    -0.077000000    -1.072000000    -4.726000000
H    -0.412000000     0.130000000    -5.582000000
O     3.500000000    -0.930000000    -2.363000000
H     2.693000000    -1.125000000    -2.839000000
H     3.630000000    -1.688000000    -1.793000000
O    -4.005000000     1.760000000     0.631000000
H    -3.597000000     2.626000000     0.642000000
H    -4.025000000     1.492000000     1.549000000
O    -1.782000000    -2.754000000     1.242000000
H    -1.733000000    -1.805000000     1.359000000
H    -1.242000000    -3.110000000     1.948000000
O    -0.453000000     0.252000000     4.909000000
H     0.012000000     1.042000000     5.183000000
H    -0.683000000     0.414000000     3.994000000
