158
-3031.49936
C     0.103000000     0.971000000     1.186000000
H     0.290000000     1.608000000     2.047000000
C     0.356000000    -0.382000000     1.215000000
H     0.674000000    -0.926000000     2.101000000
C     0.176000000    -1.201000000     0.112000000
H     0.424000000    -2.253000000     0.322000000
C    -0.118000000    -0.657000000    -1.177000000
H    -0.285000000    -1.280000000    -2.052000000
C    -0.357000000     0.711000000    -1.248000000
H    -0.739000000     1.146000000    -2.168000000
C    -0.219000000     1.546000000    -0.082000000
C    -0.377000000     3.040000000    -0.185000000
O    -0.347000000     3.687000000     0.856000000
O    -0.667000000     3.623000000    -1.206000000
O    -1.794000000    -4.776000000    -0.980000000
H    -1.115000000    -4.267000000    -0.538000000
H    -2.568000000    -4.678000000    -0.425000000
O     1.022000000     8.282000000     3.204000000
H     0.831000000     7.361000000     3.027000000
H     0.207000000     8.739000000     2.997000000
O    -5.472000000     2.782000000    -2.564000000
H    -4.584000000     2.905000000    -2.899000000
H    -5.915000000     2.269000000    -3.241000000
O    -0.330000000     5.860000000    -2.491000000
H    -0.760000000     5.688000000    -3.329000000
H    -0.411000000     5.039000000    -2.007000000
O    -2.096000000     2.625000000    -5.636000000
H    -2.294000000     2.968000000    -4.765000000
H    -2.299000000     1.692000000    -5.578000000
O    -0.937000000    -7.424000000    -1.353000000
H    -1.175000000    -6.525000000    -1.129000000
H    -1.511000000    -7.649000000    -2.085000000
O     0.662000000     4.600000000     4.919000000
H     1.010000000     5.071000000     5.675000000
H     1.392000000     4.568000000     4.300000000
O     4.135000000    -4.660000000     2.756000000
H     5.081000000    -4.517000000     2.720000000
H     4.034000000    -5.466000000     3.262000000
O     3.163000000    -2.276000000    -1.862000000
H     4.051000000    -2.029000000    -1.605000000
H     2.852000000    -2.830000000    -1.146000000
O     5.234000000     1.866000000     2.325000000
H     5.586000000     1.039000000     1.996000000
H     4.386000000     1.632000000     2.703000000
O     2.560000000    -3.255000000     1.060000000
H     3.045000000    -3.624000000     1.798000000
H     1.833000000    -3.863000000     0.923000000
O     5.228000000    -1.780000000     3.450000000
H     4.379000000    -1.346000000     3.366000000
H     5.415000000    -2.111000000     2.571000000
O    -5.012000000     0.536000000    -4.318000000
H    -4.260000000     0.657000000    -4.897000000
H    -5.246000000    -0.387000000    -4.418000000
O     5.359000000    -2.583000000     0.687000000
H     5.509000000    -3.510000000     0.503000000
H     4.442000000    -2.438000000     0.455000000
O    -1.945000000     5.746000000    -4.892000000
H    -1.988000000     6.651000000    -4.581000000
H    -2.671000000     5.670000000    -5.510000000
O    -3.886000000     6.725000000    -1.961000000
H    -3.451000000     6.367000000    -1.187000000
H    -3.170000000     6.975000000    -2.545000000
O    -2.683000000     3.293000000    -2.962000000
H    -2.465000000     4.117000000    -3.397000000
H    -2.026000000     3.205000000    -2.272000000
O    -3.867000000     1.906000000     0.444000000
H    -4.112000000     2.095000000    -0.461000000
H    -4.012000000     2.730000000     0.909000000
O    -1.031000000     2.711000000     4.070000000
H    -0.475000000     3.355000000     4.509000000
H    -1.097000000     3.027000000     3.169000000
O    -2.450000000     5.841000000     0.134000000
H    -2.939000000     5.611000000     0.924000000
H    -1.743000000     5.196000000     0.094000000
O     2.746000000    -0.794000000     4.224000000
H     3.143000000    -0.850000000     5.093000000
H     1.890000000    -0.395000000     4.378000000
O     3.121000000     0.586000000    -0.408000000
H     2.600000000     1.040000000    -1.070000000
H     2.529000000    -0.074000000    -0.047000000
O    -4.591000000    -2.186000000     0.150000000
H    -3.867000000    -1.700000000     0.544000000
H    -4.325000000    -2.317000000    -0.760000000
O    -3.266000000    -2.214000000    -2.166000000
H    -3.323000000    -2.158000000    -3.120000000
H    -2.845000000    -1.396000000    -1.902000000
O    -0.485000000    -4.514000000     3.958000000
H    -0.730000000    -3.940000000     4.683000000
H     0.434000000    -4.308000000     3.790000000
O    -2.069000000    -5.706000000    -3.734000000
H    -2.375000000    -5.185000000    -2.991000000
H    -1.135000000    -5.504000000    -3.800000000
O    -2.318000000    -0.708000000     3.694000000
H    -2.311000000    -0.959000000     2.770000000
H    -1.394000000    -0.597000000     3.918000000
O     0.862000000     8.174000000    -0.932000000
H     1.473000000     8.398000000    -1.634000000
H     0.206000000     7.620000000    -1.354000000
O     4.568000000    -3.929000000    -3.956000000
H     4.380000000    -3.458000000    -4.768000000
H     3.861000000    -3.675000000    -3.362000000
O    -0.173000000    -7.732000000     1.238000000
H    -0.690000000    -7.946000000     0.461000000
H     0.721000000    -7.633000000     0.911000000
O     1.851000000     4.183000000     2.162000000
H     1.171000000     3.925000000     1.540000000
H     2.171000000     5.023000000     1.833000000
O     1.322000000    -3.121000000    -5.683000000
H     1.291000000    -3.099000000    -6.639000000
H     2.077000000    -2.577000000    -5.455000000
O    -2.022000000     7.316000000     3.515000000
H    -1.705000000     8.199000000     3.325000000
H    -1.508000000     6.749000000     2.940000000
O     0.446000000    -5.087000000     1.091000000
H    -0.139000000    -5.828000000     0.929000000
H     0.398000000    -4.948000000     2.037000000
O     2.166000000    -6.786000000    -1.999000000
H     1.467000000    -6.825000000    -1.346000000
H     1.762000000    -6.367000000    -2.758000000
O     0.143000000    -0.105000000     4.803000000
H    -0.030000000     0.828000000     4.931000000
H    -0.225000000    -0.525000000     5.581000000
O     2.356000000     5.313000000    -1.417000000
H     1.875000000     5.435000000    -2.235000000
H     1.676000000     5.231000000    -0.748000000
O     2.437000000    -0.476000000    -3.821000000
H     2.718000000    -1.124000000    -3.175000000
H     2.441000000     0.355000000    -3.345000000
O     2.257000000    -3.759000000     4.326000000
H     2.402000000    -2.865000000     4.634000000
H     2.948000000    -3.906000000     3.680000000
O     3.646000000     4.576000000     4.417000000
H     3.960000000     3.721000000     4.712000000
H     3.166000000     4.389000000     3.610000000
O    -3.657000000     5.354000000     2.685000000
H    -3.210000000     6.088000000     3.106000000
H    -4.535000000     5.358000000     3.066000000
O     2.067000000     3.820000000    -4.485000000
H     1.244000000     3.838000000    -4.974000000
H     2.535000000     4.603000000    -4.776000000
O    -0.196000000     6.189000000     2.116000000
H    -0.169000000     6.567000000     1.237000000
H    -0.154000000     5.243000000     1.971000000
O     2.031000000     1.980000000    -2.532000000
H     1.162000000     2.281000000    -2.266000000
H     2.167000000     2.375000000    -3.393000000
O    -3.433000000     2.525000000     5.356000000
H    -3.594000000     3.468000000     5.325000000
H    -2.643000000     2.399000000     4.830000000
O    -2.532000000    -0.496000000     1.015000000
H    -2.843000000     0.403000000     0.908000000
H    -1.643000000    -0.485000000     0.659000000
O    -3.247000000    -5.250000000     1.370000000
H    -2.937000000    -5.579000000     2.214000000
H    -4.197000000    -5.186000000     1.472000000
O     0.679000000    -5.299000000    -3.939000000
H     0.862000000    -5.999000000    -4.566000000
H     0.858000000    -4.492000000    -4.423000000
