158
-3059.48938
C     1.119000000     0.439000000     0.881000000
H     2.005000000     0.531000000     1.505000000
C     1.048000000    -0.711000000     0.125000000
H     1.840000000    -1.456000000     0.117000000
C    -0.101000000    -1.020000000    -0.658000000
H    -0.125000000    -1.983000000    -1.136000000
C    -1.108000000    -0.138000000    -0.706000000
H    -1.998000000    -0.421000000    -1.263000000
C    -0.960000000     1.075000000    -0.058000000
H    -1.823000000     1.726000000    -0.174000000
C     0.128000000     1.389000000     0.784000000
C     0.169000000     2.677000000     1.566000000
O     1.264000000     2.949000000     1.971000000
O    -0.828000000     3.388000000     1.782000000
O    -1.417000000    -6.223000000    -2.101000000
H    -1.074000000    -5.707000000    -1.371000000
H    -1.268000000    -5.676000000    -2.872000000
O     4.028000000     1.931000000     6.798000000
H     3.661000000     1.289000000     7.406000000
H     3.481000000     1.861000000     6.016000000
O     3.953000000     5.431000000     2.869000000
H     3.923000000     5.041000000     1.996000000
H     4.313000000     4.742000000     3.427000000
O     5.183000000     3.635000000     4.453000000
H     4.571000000     3.363000000     5.136000000
H     5.795000000     2.904000000     4.374000000
O     3.127000000    -2.693000000    -4.022000000
H     3.040000000    -2.898000000    -3.091000000
H     3.470000000    -3.497000000    -4.413000000
O     5.234000000    -1.625000000    -0.236000000
H     5.023000000    -2.558000000    -0.232000000
H     5.033000000    -1.331000000     0.653000000
O     4.062000000    -5.499000000    -0.177000000
H     3.888000000    -5.033000000     0.641000000
H     4.506000000    -6.302000000     0.095000000
O    -3.421000000     3.570000000     1.252000000
H    -3.781000000     3.833000000     2.099000000
H    -2.472000000     3.621000000     1.370000000
O    -3.528000000     1.077000000     3.036000000
H    -3.987000000     1.894000000     2.842000000
H    -3.283000000     1.154000000     3.958000000
O     0.759000000     3.692000000     6.035000000
H     0.765000000     4.433000000     5.429000000
H     0.656000000     4.090000000     6.899000000
O     2.649000000     2.130000000     4.475000000
H     2.114000000     2.673000000     5.053000000
H     2.298000000     2.292000000     3.600000000
O    -0.164000000     2.450000000    -2.915000000
H     0.193000000     1.645000000    -2.540000000
H     0.059000000     3.130000000    -2.279000000
O    -2.577000000    -3.856000000    -5.220000000
H    -1.777000000    -4.206000000    -4.828000000
H    -3.237000000    -4.530000000    -5.061000000
O    -1.710000000     5.518000000    -3.126000000
H    -0.761000000     5.403000000    -3.065000000
H    -2.002000000     5.577000000    -2.217000000
O     4.049000000    -1.329000000     4.746000000
H     4.350000000    -1.168000000     5.641000000
H     3.127000000    -1.071000000     4.754000000
O     2.734000000     1.283000000    -2.115000000
H     2.415000000     0.631000000    -2.738000000
H     2.575000000     0.892000000    -1.256000000
O    -3.175000000    -3.310000000    -1.687000000
H    -2.265000000    -3.031000000    -1.592000000
H    -3.669000000    -2.494000000    -1.762000000
O     1.634000000    -0.426000000     5.134000000
H     1.154000000     0.367000000     4.895000000
H     1.505000000    -0.507000000     6.079000000
O    -4.793000000    -0.851000000    -1.848000000
H    -5.350000000    -1.528000000    -1.464000000
H    -4.770000000    -0.157000000    -1.188000000
O     1.665000000    -4.913000000     1.032000000
H     1.702000000    -5.854000000     1.202000000
H     1.316000000    -4.536000000     1.840000000
O     0.293000000    -8.483000000    -1.252000000
H     0.103000000    -7.545000000    -1.268000000
H    -0.568000000    -8.902000000    -1.248000000
O    -1.906000000    -0.875000000     2.234000000
H    -2.542000000    -0.195000000     2.455000000
H    -1.486000000    -0.559000000     1.434000000
O     3.691000000     3.602000000    -2.343000000
H     3.522000000     3.719000000    -3.278000000
H     3.340000000     2.735000000    -2.142000000
O     0.002000000    -4.328000000    -4.333000000
H     0.625000000    -4.731000000    -4.938000000
H     0.517000000    -4.144000000    -3.547000000
O    -5.668000000     4.569000000    -0.671000000
H    -5.604000000     5.517000000    -0.550000000
H    -5.009000000     4.207000000    -0.078000000
O     2.032000000    -3.858000000    -1.831000000
H     1.427000000    -3.843000000    -1.090000000
H     2.742000000    -4.434000000    -1.549000000
O    -0.535000000    -4.335000000    -0.234000000
H     0.266000000    -4.705000000     0.137000000
H    -1.027000000    -4.019000000     0.524000000
O     3.451000000     3.570000000     0.710000000
H     3.220000000     3.976000000    -0.126000000
H     2.614000000     3.288000000     1.078000000
O    -0.355000000    -1.724000000    -5.182000000
H    -1.048000000    -1.478000000    -4.569000000
H    -0.221000000    -2.659000000    -5.028000000
O     5.217000000    -0.577000000     2.180000000
H     4.818000000    -0.830000000     3.012000000
H     5.478000000     0.335000000     2.307000000
O     0.130000000     5.741000000     0.980000000
H    -0.249000000     4.924000000     1.305000000
H     1.022000000     5.746000000     1.328000000
O    -4.147000000     4.024000000     5.932000000
H    -4.338000000     4.563000000     6.700000000
H    -3.410000000     4.465000000     5.508000000
O    -0.900000000    -1.843000000     4.849000000
H    -0.380000000    -1.096000000     4.554000000
H    -1.584000000    -1.937000000     4.185000000
O    -3.454000000    -5.886000000    -0.515000000
H    -2.983000000    -6.224000000    -1.276000000
H    -3.558000000    -4.952000000    -0.692000000
O     0.596000000    -4.380000000     3.465000000
H     0.526000000    -3.893000000     4.286000000
H     0.654000000    -5.297000000     3.735000000
O    -2.772000000    -1.053000000    -4.074000000
H    -2.996000000    -1.880000000    -4.502000000
H    -3.506000000    -0.882000000    -3.484000000
O     1.846000000    -0.474000000    -4.220000000
H     1.048000000    -0.773000000    -4.655000000
H     2.341000000    -1.276000000    -4.050000000
O    -1.633000000     1.209000000    -5.076000000
H    -0.890000000     1.136000000    -4.477000000
H    -2.300000000     0.633000000    -4.701000000
O     5.599000000     2.458000000     1.784000000
H     5.921000000     3.330000000     2.009000000
H     4.723000000     2.610000000     1.429000000
O    -2.192000000     4.792000000     3.785000000
H    -1.779000000     4.426000000     3.004000000
H    -1.865000000     5.690000000     3.831000000
O    -2.593000000    -5.906000000     1.900000000
H    -2.241000000    -5.020000000     1.991000000
H    -3.014000000    -5.909000000     1.040000000
O    -5.258000000     3.792000000     3.385000000
H    -5.658000000     4.620000000     3.120000000
H    -5.127000000     3.881000000     4.329000000
O     1.245000000     5.863000000     4.519000000
H     2.012000000     5.580000000     4.020000000
H     0.787000000     6.465000000     3.933000000
O     0.649000000     4.340000000    -1.357000000
H     0.295000000     4.826000000    -0.612000000
H     1.365000000     4.887000000    -1.681000000
O    -0.450000000     1.531000000     4.703000000
H    -0.047000000     2.249000000     5.192000000
H    -0.689000000     1.919000000     3.861000000
O    -4.460000000     1.261000000     0.162000000
H    -3.978000000     2.007000000     0.518000000
H    -4.765000000     0.783000000     0.932000000
O    -1.660000000    -3.480000000     2.073000000
H    -1.833000000    -2.546000000     2.193000000
H    -0.760000000    -3.597000000     2.374000000
O    -2.337000000     6.498000000    -0.463000000
H    -1.860000000     7.081000000    -1.054000000
H    -1.686000000     6.228000000     0.185000000
