158
-3051.95477
C    -0.195000000     0.288000000     1.428000000
H    -0.349000000     0.414000000     2.496000000
C     0.234000000    -0.919000000     0.934000000
H     0.324000000    -1.816000000     1.541000000
C     0.358000000    -1.075000000    -0.461000000
H     0.600000000    -2.001000000    -0.963000000
C     0.161000000     0.046000000    -1.291000000
H     0.197000000    -0.124000000    -2.364000000
C    -0.178000000     1.293000000    -0.792000000
H    -0.251000000     2.162000000    -1.441000000
C    -0.315000000     1.378000000     0.598000000
C    -0.753000000     2.712000000     1.159000000
O    -0.285000000     3.160000000     2.233000000
O    -1.634000000     3.365000000     0.568000000
O    -1.761000000     7.745000000    -0.088000000
H    -1.597000000     8.596000000    -0.496000000
H    -2.087000000     7.957000000     0.786000000
O     2.300000000     5.659000000    -3.352000000
H     3.248000000     5.779000000    -3.408000000
H     2.188000000     4.905000000    -2.772000000
O    -1.461000000     1.643000000     4.660000000
H    -1.215000000     1.960000000     3.791000000
H    -0.994000000     2.218000000     5.266000000
O    -1.528000000    -2.592000000    -4.291000000
H    -1.060000000    -2.094000000    -3.620000000
H    -2.324000000    -2.085000000    -4.453000000
O    -0.402000000     5.517000000     3.886000000
H    -0.452000000     4.760000000     3.302000000
H    -0.036000000     6.214000000     3.343000000
O     0.368000000    -2.049000000    -6.276000000
H    -0.505000000    -2.013000000    -5.886000000
H     0.915000000    -2.454000000    -5.603000000
O     3.286000000    -0.920000000     0.039000000
H     3.997000000    -0.446000000     0.470000000
H     2.500000000    -0.415000000     0.247000000
O     2.173000000    -3.110000000    -4.439000000
H     2.823000000    -3.634000000    -4.906000000
H     2.685000000    -2.442000000    -3.985000000
O     0.932000000    -7.769000000     1.893000000
H     0.247000000    -7.166000000     1.606000000
H     0.663000000    -8.620000000     1.544000000
O     0.613000000     7.157000000     2.156000000
H     0.383000000     8.077000000     2.282000000
H     0.184000000     6.912000000     1.337000000
O    -3.622000000    -0.834000000    -4.533000000
H    -4.093000000    -0.930000000    -3.705000000
H    -3.555000000     0.112000000    -4.663000000
O     3.178000000    -6.660000000    -2.042000000
H     4.113000000    -6.852000000    -2.118000000
H     2.895000000    -7.149000000    -1.269000000
O    -3.492000000     3.682000000    -1.365000000
H    -3.742000000     4.558000000    -1.069000000
H    -2.701000000     3.478000000    -0.866000000
O     3.565000000    -3.904000000    -0.265000000
H     3.711000000    -3.006000000     0.031000000
H     2.616000000    -3.970000000    -0.372000000
O     3.176000000    -1.294000000    -2.916000000
H     3.428000000    -0.424000000    -3.227000000
H     3.434000000    -1.303000000    -1.995000000
O     1.505000000    -4.393000000    -2.144000000
H     2.047000000    -5.159000000    -2.331000000
H     1.744000000    -3.759000000    -2.820000000
O     3.393000000     2.012000000    -2.955000000
H     2.491000000     2.052000000    -3.273000000
H     3.927000000     2.228000000    -3.720000000
O    -4.081000000     6.421000000    -0.584000000
H    -3.170000000     6.709000000    -0.636000000
H    -4.578000000     7.225000000    -0.430000000
O     5.075000000    -3.626000000    -2.551000000
H     4.927000000    -4.162000000    -3.330000000
H     4.275000000    -3.730000000    -2.035000000
O    -1.268000000    -4.351000000    -2.037000000
H    -0.328000000    -4.534000000    -2.058000000
H    -1.379000000    -3.602000000    -2.623000000
O    -1.665000000    -3.114000000     3.428000000
H    -1.850000000    -2.931000000     2.507000000
H    -2.366000000    -2.671000000     3.906000000
O     6.001000000    -1.113000000    -1.566000000
H     6.076000000    -0.783000000    -2.462000000
H     5.796000000    -2.042000000    -1.670000000
O    -1.112000000    -5.252000000    -5.582000000
H    -0.205000000    -5.534000000    -5.695000000
H    -1.097000000    -4.710000000    -4.793000000
O    -2.857000000     5.115000000     2.063000000
H    -2.206000000     4.614000000     1.572000000
H    -3.188000000     4.501000000     2.718000000
O    -5.488000000     5.012000000     1.533000000
H    -4.592000000     5.311000000     1.690000000
H    -5.395000000     4.297000000     0.903000000
O    -5.538000000     1.790000000    -1.666000000
H    -4.817000000     2.295000000    -1.289000000
H    -6.197000000     1.759000000    -0.973000000
O     3.018000000     5.068000000     4.456000000
H     2.619000000     5.921000000     4.283000000
H     2.708000000     4.510000000     3.743000000
O    -3.140000000     7.957000000     2.363000000
H    -3.304000000     7.966000000     3.306000000
H    -3.140000000     7.029000000     2.129000000
O     4.671000000     2.613000000    -0.719000000
H     4.251000000     3.438000000    -0.476000000
H     4.162000000     2.296000000    -1.466000000
O    -0.947000000     3.975000000    -2.848000000
H    -1.859000000     3.960000000    -2.556000000
H    -0.456000000     4.275000000    -2.083000000
O    -2.304000000    -3.452000000     0.499000000
H    -2.836000000    -4.247000000     0.464000000
H    -1.743000000    -3.505000000    -0.275000000
O     2.398000000     4.027000000     2.067000000
H     1.541000000     3.649000000     2.265000000
H     2.348000000     4.260000000     1.140000000
O     0.357000000    -4.620000000     2.674000000
H     0.153000000    -4.991000000     1.815000000
H    -0.351000000    -3.998000000     2.840000000
O    -1.263000000    -6.219000000     0.895000000
H    -1.915000000    -6.198000000     1.596000000
H    -1.598000000    -6.867000000     0.276000000
O    -0.669000000     0.462000000    -5.422000000
H     0.078000000     0.929000000    -5.048000000
H    -0.357000000     0.151000000    -6.271000000
O     0.991000000     2.515000000    -4.362000000
H     1.315000000     2.995000000    -5.124000000
H     0.393000000     3.126000000    -3.931000000
O    -4.060000000     0.264000000     3.988000000
H    -4.383000000     0.635000000     3.167000000
H    -3.127000000     0.478000000     3.997000000
O    -3.445000000     4.868000000    -4.198000000
H    -4.034000000     4.170000000    -4.484000000
H    -2.574000000     4.471000000    -4.222000000
O    -2.730000000     4.920000000     5.694000000
H    -2.968000000     5.842000000     5.794000000
H    -2.120000000     4.909000000     4.956000000
O    -1.623000000    -7.177000000    -2.994000000
H    -1.492000000    -6.333000000    -2.564000000
H    -0.842000000    -7.295000000    -3.535000000
O    -0.128000000     5.476000000    -0.516000000
H    -0.773000000     6.184000000    -0.523000000
H    -0.393000000     4.917000000     0.214000000
O     2.724000000     5.391000000    -0.425000000
H     3.100000000     6.222000000    -0.134000000
H     1.837000000     5.616000000    -0.707000000
O    -3.109000000    -0.796000000    -0.395000000
H    -3.132000000    -1.700000000    -0.083000000
H    -2.235000000    -0.484000000    -0.159000000
O     4.822000000     3.097000000     2.396000000
H     3.992000000     3.561000000     2.510000000
H     4.571000000     2.242000000     2.045000000
O    -2.803000000     1.897000000    -4.718000000
H    -2.723000000     2.336000000    -3.872000000
H    -1.991000000     1.398000000    -4.808000000
O    -3.990000000     1.480000000     1.544000000
H    -4.754000000     1.968000000     1.238000000
H    -3.498000000     1.281000000     0.747000000
O    -0.066000000    -3.704000000     5.734000000
H    -0.039000000    -4.656000000     5.637000000
H    -0.419000000    -3.388000000     4.903000000
O     3.084000000    -5.902000000     3.847000000
H     2.417000000    -5.244000000     3.649000000
H     3.801000000    -5.406000000     4.242000000
