158
-3022.13797
C     0.174000000     0.829000000     1.210000000
H     0.354000000     1.334000000     2.156000000
C     0.365000000    -0.553000000     1.117000000
H     0.605000000    -1.134000000     2.003000000
C     0.178000000    -1.223000000    -0.096000000
H     0.154000000    -2.313000000    -0.135000000
C    -0.368000000    -0.499000000    -1.176000000
H    -0.507000000    -1.035000000    -2.111000000
C    -0.486000000     0.876000000    -1.104000000
H    -0.862000000     1.453000000    -1.945000000
C    -0.213000000     1.578000000     0.078000000
C    -0.417000000     3.020000000     0.192000000
O     0.229000000     3.691000000     0.980000000
O    -1.278000000     3.663000000    -0.363000000
O    -0.068000000     6.844000000    -1.566000000
H    -0.039000000     7.551000000    -2.211000000
H    -0.281000000     6.063000000    -2.076000000
O     5.449000000     0.613000000     0.747000000
H     5.624000000     0.847000000    -0.165000000
H     4.820000000    -0.107000000     0.693000000
O    -1.118000000     1.671000000     4.552000000
H    -0.943000000     2.267000000     3.823000000
H    -0.300000000     1.652000000     5.047000000
O    -3.111000000    -1.996000000    -4.521000000
H    -3.383000000    -1.338000000    -5.161000000
H    -3.931000000    -2.357000000    -4.185000000
O     0.603000000     4.985000000     5.632000000
H    -0.167000000     5.181000000     6.165000000
H     0.247000000     4.730000000     4.781000000
O    -4.274000000    -2.776000000     3.263000000
H    -3.703000000    -2.100000000     2.899000000
H    -4.805000000    -2.315000000     3.913000000
O    -0.318000000    -5.757000000    -5.109000000
H    -0.457000000    -4.874000000    -4.766000000
H     0.560000000    -5.731000000    -5.490000000
O     3.534000000    -1.168000000     0.377000000
H     2.649000000    -0.874000000     0.160000000
H     3.704000000    -1.886000000    -0.231000000
O     0.704000000    -1.691000000     5.647000000
H     0.884000000    -1.858000000     4.721000000
H     0.328000000    -2.510000000     5.969000000
O     2.140000000     6.716000000     3.463000000
H     2.409000000     5.967000000     3.996000000
H     1.919000000     6.337000000     2.612000000
O    -4.731000000     2.267000000    -4.284000000
H    -4.300000000     2.426000000    -5.124000000
H    -5.167000000     3.095000000    -4.079000000
O    -0.920000000     4.733000000    -2.868000000
H    -0.603000000     3.946000000    -3.312000000
H    -0.961000000     4.487000000    -1.944000000
O     4.311000000    -5.129000000     0.442000000
H     5.057000000    -4.930000000     1.006000000
H     3.714000000    -5.627000000     1.000000000
O    -3.899000000    -1.808000000    -0.804000000
H    -3.228000000    -2.476000000    -0.660000000
H    -3.615000000    -1.351000000    -1.596000000
O     3.479000000    -0.160000000    -3.745000000
H     4.157000000    -0.816000000    -3.583000000
H     3.743000000     0.259000000    -4.564000000
O     3.454000000    -5.749000000    -3.803000000
H     2.618000000    -5.334000000    -3.589000000
H     3.451000000    -6.565000000    -3.303000000
O     2.117000000    -2.449000000     3.380000000
H     2.262000000    -2.166000000     2.477000000
H     2.292000000    -3.390000000     3.367000000
O     0.935000000     3.034000000    -3.944000000
H     1.157000000     3.965000000    -3.960000000
H     1.647000000     2.611000000    -4.425000000
O    -2.328000000     6.129000000     1.052000000
H    -3.022000000     5.558000000     0.723000000
H    -1.526000000     5.781000000     0.664000000
O     0.647000000    -4.888000000     0.890000000
H     1.028000000    -4.874000000     1.768000000
H     1.115000000    -5.590000000     0.437000000
O     3.505000000    -3.331000000    -1.499000000
H     2.676000000    -3.721000000    -1.776000000
H     3.930000000    -4.015000000    -0.980000000
O    -0.890000000    -3.317000000    -3.931000000
H    -0.161000000    -2.713000000    -4.077000000
H    -1.672000000    -2.800000000    -4.123000000
O     1.213000000     1.040000000     5.769000000
H     2.119000000     0.917000000     5.485000000
H     0.834000000     0.161000000     5.748000000
O     5.063000000    -2.082000000    -3.276000000
H     4.542000000    -2.720000000    -2.789000000
H     5.787000000    -1.865000000    -2.688000000
O    -2.814000000    -0.857000000     1.923000000
H    -2.256000000    -0.099000000     1.750000000
H    -3.105000000    -1.143000000     1.057000000
O    -0.940000000     4.177000000     3.484000000
H    -0.642000000     4.115000000     2.576000000
H    -1.765000000     4.659000000     3.433000000
O    -3.874000000    -5.192000000     0.441000000
H    -3.258000000    -4.629000000     0.911000000
H    -3.572000000    -5.172000000    -0.467000000
O    -6.101000000     1.611000000     0.370000000
H    -5.239000000     1.860000000     0.036000000
H    -6.160000000     0.670000000     0.202000000
O     4.475000000     6.237000000    -0.426000000
H     3.552000000     6.431000000    -0.263000000
H     4.462000000     5.460000000    -0.984000000
O     2.814000000     2.036000000    -1.931000000
H     3.043000000     1.135000000    -2.156000000
H     1.935000000     2.156000000    -2.288000000
O    -2.099000000    -5.073000000    -1.870000000
H    -1.499000000    -5.801000000    -2.028000000
H    -1.585000000    -4.291000000    -2.070000000
O     2.557000000     2.889000000     1.371000000
H     1.686000000     3.273000000     1.269000000
H     2.996000000     3.067000000     0.539000000
O     5.876000000    -3.760000000     2.394000000
H     6.289000000    -4.229000000     3.119000000
H     5.277000000    -3.144000000     2.816000000
O    -0.172000000    -7.298000000    -1.969000000
H    -0.243000000    -7.772000000    -1.140000000
H    -0.321000000    -7.964000000    -2.639000000
O     1.020000000    -1.438000000    -4.395000000
H     1.558000000    -2.171000000    -4.694000000
H     1.602000000    -0.928000000    -3.832000000
O    -3.226000000     6.422000000    -2.148000000
H    -2.659000000     7.043000000    -2.605000000
H    -2.640000000     5.714000000    -1.881000000
O     4.775000000     3.593000000    -1.643000000
H     3.979000000     3.063000000    -1.625000000
H     5.486000000     2.956000000    -1.711000000
O    -2.887000000    -7.701000000     1.184000000
H    -3.242000000    -6.824000000     1.040000000
H    -3.543000000    -8.138000000     1.728000000
O     2.418000000    -5.060000000     3.290000000
H     2.139000000    -5.298000000     4.174000000
H     3.148000000    -5.651000000     3.102000000
O     4.948000000    -2.040000000     4.306000000
H     4.199000000    -1.445000000     4.336000000
H     5.591000000    -1.645000000     4.895000000
O     1.312000000    -4.821000000    -2.408000000
H     0.555000000    -4.408000000    -2.824000000
H     0.956000000    -5.600000000    -1.981000000
O    -5.805000000     4.309000000     1.443000000
H    -5.503000000     4.517000000     0.559000000
H    -5.915000000     3.359000000     1.441000000
O     1.646000000     6.357000000     0.677000000
H     1.021000000     6.507000000    -0.033000000
H     1.486000000     5.454000000     0.951000000
O    -3.366000000     0.486000000    -2.918000000
H    -4.044000000     1.067000000    -3.264000000
H    -2.894000000     0.181000000    -3.693000000
O     4.816000000     2.304000000     3.072000000
H     4.210000000     2.672000000     2.429000000
H     4.783000000     1.359000000     2.918000000
O    -1.000000000     0.317000000    -4.900000000
H    -0.318000000     0.970000000    -4.739000000
H    -0.530000000    -0.516000000    -4.933000000
O    -3.570000000     2.301000000    -0.747000000
H    -3.234000000     1.760000000    -1.462000000
H    -2.846000000     2.888000000    -0.531000000
O    -1.823000000    -3.504000000     1.119000000
H    -0.926000000    -3.775000000     0.924000000
H    -1.729000000    -2.647000000     1.535000000
