158
-3014.06044
C    -0.782000000     0.866000000     0.933000000
H    -1.130000000     1.651000000     1.599000000
C     0.512000000     0.390000000     1.154000000
H     1.079000000     0.758000000     2.006000000
C     1.074000000    -0.491000000     0.213000000
H     2.073000000    -0.904000000     0.333000000
C     0.435000000    -0.869000000    -0.993000000
H     0.862000000    -1.537000000    -1.736000000
C    -0.810000000    -0.270000000    -1.246000000
H    -1.264000000    -0.480000000    -2.211000000
C    -1.408000000     0.555000000    -0.280000000
C    -2.769000000     1.128000000    -0.606000000
O    -3.004000000     2.282000000    -0.254000000
O    -3.559000000     0.516000000    -1.359000000
O    -1.673000000     4.333000000    -2.237000000
H    -2.138000000     3.699000000    -1.691000000
H    -0.779000000     3.995000000    -2.289000000
O    -6.457000000    -0.533000000     0.856000000
H    -6.159000000     0.377000000     0.870000000
H    -5.708000000    -1.024000000     0.517000000
O     4.640000000     0.387000000     1.422000000
H     5.396000000     0.026000000     0.961000000
H     4.878000000     1.298000000     1.596000000
O    -2.364000000     4.632000000     1.137000000
H    -2.610000000     3.904000000     0.567000000
H    -2.371000000     4.258000000     2.019000000
O     7.012000000     2.010000000    -1.632000000
H     6.785000000     1.081000000    -1.665000000
H     7.817000000     2.078000000    -2.146000000
O     6.420000000     2.595000000     2.144000000
H     6.789000000     1.742000000     1.914000000
H     6.809000000     2.803000000     2.993000000
O    -0.015000000     4.478000000     3.520000000
H     0.385000000     4.544000000     2.653000000
H     0.042000000     5.363000000     3.879000000
O     1.924000000    -4.093000000    -1.055000000
H     1.156000000    -3.539000000    -1.196000000
H     1.704000000    -4.921000000    -1.481000000
O    -5.215000000    -2.508000000     2.909000000
H    -6.139000000    -2.315000000     3.070000000
H    -5.119000000    -2.440000000     1.959000000
O    -3.886000000     0.545000000     3.544000000
H    -4.486000000    -0.142000000     3.835000000
H    -4.366000000     1.008000000     2.857000000
O     2.377000000     1.887000000    -3.856000000
H     1.863000000     1.809000000    -4.659000000
H     2.864000000     2.705000000    -3.962000000
O     6.904000000    -4.160000000    -2.412000000
H     7.555000000    -4.550000000    -1.829000000
H     6.178000000    -3.923000000    -1.835000000
O    -6.018000000     0.633000000    -3.114000000
H    -6.627000000     1.355000000    -2.965000000
H    -5.520000000     0.567000000    -2.299000000
O     5.048000000    -3.550000000    -0.600000000
H     4.157000000    -3.480000000    -0.945000000
H     4.959000000    -4.094000000     0.183000000
O    -2.202000000    -2.082000000    -5.609000000
H    -2.049000000    -2.022000000    -6.552000000
H    -2.206000000    -1.173000000    -5.308000000
O     1.239000000    -4.327000000     5.868000000
H     0.911000000    -5.218000000     5.749000000
H     0.963000000    -3.863000000     5.078000000
O    -0.394000000     1.924000000    -4.213000000
H    -1.293000000     1.631000000    -4.065000000
H    -0.146000000     1.522000000    -5.046000000
O    -5.598000000    -3.839000000    -0.205000000
H    -5.568000000    -4.495000000    -0.902000000
H    -5.015000000    -3.142000000    -0.507000000
O    -5.052000000     3.708000000    -1.537000000
H    -4.488000000     3.127000000    -1.027000000
H    -4.981000000     3.384000000    -2.435000000
O    -4.031000000    -1.703000000     0.013000000
H    -3.880000000    -0.896000000    -0.479000000
H    -3.242000000    -1.811000000     0.545000000
O     4.905000000    -4.053000000     2.358000000
H     5.725000000    -3.590000000     2.524000000
H     5.061000000    -4.941000000     2.681000000
O    -1.514000000     6.887000000    -0.660000000
H    -2.099000000     7.097000000    -1.388000000
H    -1.859000000     6.069000000    -0.303000000
O    -1.711000000    -0.417000000     5.191000000
H    -2.083000000    -1.296000000     5.126000000
H    -2.221000000     0.106000000     4.572000000
O     3.838000000    -1.400000000     3.979000000
H     4.154000000    -1.665000000     4.843000000
H     4.225000000    -2.036000000     3.377000000
O    -0.121000000    -3.717000000     3.418000000
H     0.676000000    -3.752000000     2.889000000
H    -0.687000000    -4.391000000     3.044000000
O     1.910000000    -7.211000000     1.763000000
H     2.599000000    -7.353000000     1.114000000
H     1.805000000    -6.261000000     1.797000000
O    -7.673000000     4.229000000    -0.595000000
H    -7.907000000     5.004000000    -1.106000000
H    -6.743000000     4.092000000    -0.780000000
O     2.106000000    -4.063000000     1.893000000
H     1.973000000    -4.265000000     0.967000000
H     3.057000000    -4.060000000     2.004000000
O     4.675000000     4.571000000     0.668000000
H     4.585000000     3.621000000     0.603000000
H     4.945000000     4.724000000     1.574000000
O     8.005000000     0.485000000     1.105000000
H     7.544000000    -0.247000000     0.695000000
H     8.844000000     0.116000000     1.380000000
O     3.208000000    -0.349000000    -2.615000000
H     2.672000000    -0.270000000    -1.826000000
H     2.963000000     0.407000000    -3.148000000
O     0.644000000     2.274000000     5.290000000
H     0.620000000     2.660000000     4.415000000
H     0.654000000     1.329000000     5.135000000
O    -1.378000000    -3.551000000    -1.823000000
H    -1.398000000    -3.026000000    -1.023000000
H    -1.426000000    -4.456000000    -1.517000000
O     2.783000000    -2.149000000    -5.438000000
H     3.271000000    -1.401000000    -5.094000000
H     2.213000000    -2.415000000    -4.717000000
O    -3.367000000     7.291000000     2.074000000
H    -3.123000000     6.552000000     1.517000000
H    -4.130000000     6.983000000     2.562000000
O     3.906000000     2.110000000    -0.496000000
H     3.458000000     2.034000000    -1.338000000
H     3.621000000     1.341000000    -0.002000000
O     6.519000000    -1.256000000    -0.472000000
H     6.021000000    -2.074000000    -0.468000000
H     7.075000000    -1.318000000    -1.248000000
O    -5.084000000     2.059000000     1.571000000
H    -4.500000000     2.128000000     0.816000000
H    -5.517000000     2.911000000     1.618000000
O    -3.364000000     2.478000000     5.433000000
H    -3.763000000     2.138000000     4.632000000
H    -3.513000000     1.793000000     6.085000000
O    -1.587000000    -2.833000000     0.956000000
H    -1.838000000    -3.726000000     1.196000000
H    -0.893000000    -2.606000000     1.574000000
O     6.029000000    -0.451000000    -3.505000000
H     5.655000000    -0.207000000    -4.351000000
H     5.269000000    -0.595000000    -2.940000000
O     0.953000000     2.798000000    -1.553000000
H     0.323000000     2.245000000    -1.092000000
H     1.059000000     2.378000000    -2.407000000
O    -6.166000000    -1.910000000    -2.403000000
H    -6.236000000    -1.039000000    -2.794000000
H    -5.229000000    -2.105000000    -2.419000000
O    -2.846000000     0.688000000    -3.997000000
H    -3.418000000     1.391000000    -4.304000000
H    -3.182000000     0.467000000    -3.129000000
O     4.494000000     1.178000000     4.873000000
H     3.893000000     0.488000000     4.590000000
H     5.270000000     1.057000000     4.326000000
O     0.142000000    -2.779000000    -3.950000000
H    -0.437000000    -2.914000000    -4.700000000
H    -0.341000000    -3.140000000    -3.207000000
O     0.824000000    -1.019000000     5.537000000
H     1.149000000    -1.466000000     4.756000000
H    -0.072000000    -0.766000000     5.314000000
O    -3.766000000    -2.878000000    -3.204000000
H    -3.510000000    -2.814000000    -4.124000000
H    -2.975000000    -3.176000000    -2.756000000
