158
-3039.93210
C    -1.049000000     0.993000000    -0.151000000
H    -1.781000000     1.777000000     0.023000000
C     0.295000000     1.314000000     0.049000000
H     0.636000000     2.318000000     0.292000000
C     1.164000000     0.289000000     0.216000000
H     2.254000000     0.385000000     0.488000000
C     0.743000000    -1.004000000     0.027000000
H     1.487000000    -1.792000000     0.116000000
C    -0.536000000    -1.300000000    -0.307000000
H    -0.762000000    -2.362000000    -0.351000000
C    -1.495000000    -0.286000000    -0.255000000
C    -2.957000000    -0.581000000    -0.721000000
O    -3.839000000     0.206000000    -0.443000000
O    -3.239000000    -1.626000000    -1.231000000
O    -4.164000000     2.973000000    -1.043000000
H    -3.891000000     2.098000000    -0.768000000
H    -3.402000000     3.329000000    -1.501000000
O     5.236000000     4.159000000    -0.701000000
H     4.856000000     3.782000000    -1.495000000
H     5.822000000     4.846000000    -1.019000000
O     5.600000000     2.627000000     3.006000000
H     4.934000000     2.537000000     2.324000000
H     5.282000000     2.083000000     3.725000000
O     4.824000000    -4.207000000    -2.693000000
H     4.551000000    -3.443000000    -2.184000000
H     4.394000000    -4.946000000    -2.264000000
O     1.176000000     5.961000000    -2.331000000
H     1.872000000     5.913000000    -1.675000000
H     0.365000000     5.914000000    -1.824000000
O    -0.922000000     4.900000000     2.214000000
H    -1.287000000     4.078000000     2.541000000
H    -1.208000000     5.559000000     2.846000000
O    -0.028000000    -5.749000000    -1.401000000
H    -0.931000000    -5.451000000    -1.288000000
H     0.424000000    -5.000000000    -1.790000000
O     4.661000000    -0.709000000     1.486000000
H     4.624000000    -0.128000000     0.726000000
H     5.575000000    -0.673000000     1.770000000
O    -4.226000000    -1.532000000     2.945000000
H    -3.326000000    -1.741000000     3.195000000
H    -4.587000000    -2.362000000     2.634000000
O     7.246000000     3.575000000     1.006000000
H     6.431000000     3.667000000     0.511000000
H     6.989000000     3.119000000     1.808000000
O     1.769000000     5.682000000     3.262000000
H     0.923000000     5.653000000     2.815000000
H     1.940000000     4.773000000     3.510000000
O    -2.525000000     2.893000000     3.493000000
H    -3.007000000     2.468000000     2.784000000
H    -3.060000000     2.739000000     4.272000000
O    -8.099000000     1.197000000    -1.242000000
H    -8.682000000     1.123000000    -0.487000000
H    -8.684000000     1.354000000    -1.983000000
O     3.358000000     2.653000000     1.021000000
H     3.712000000     1.863000000     0.611000000
H     3.606000000     3.362000000     0.428000000
O    -1.799000000     3.886000000    -2.316000000
H    -1.964000000     4.685000000    -2.815000000
H    -1.372000000     4.188000000    -1.514000000
O    -5.591000000    -3.783000000    -4.689000000
H    -5.422000000    -3.601000000    -3.764000000
H    -5.597000000    -2.921000000    -5.105000000
O     3.575000000    -3.033000000     2.637000000
H     3.785000000    -2.327000000     2.026000000
H     2.624000000    -2.989000000     2.736000000
O    -3.447000000    -1.426000000    -4.250000000
H    -3.441000000    -1.791000000    -3.365000000
H    -3.839000000    -0.558000000    -4.148000000
O    -5.342000000     3.481000000    -4.737000000
H    -5.309000000     2.781000000    -4.085000000
H    -4.851000000     4.201000000    -4.340000000
O    -6.437000000    -0.435000000     0.544000000
H    -5.607000000    -0.325000000     0.081000000
H    -7.067000000     0.070000000     0.029000000
O     3.394000000     3.574000000    -2.814000000
H     3.238000000     3.316000000    -3.722000000
H     2.573000000     3.375000000    -2.364000000
O    -0.772000000    -1.262000000     2.608000000
H    -0.347000000    -0.925000000     1.819000000
H    -0.730000000    -0.537000000     3.231000000
O     4.658000000     0.557000000     4.669000000
H     4.672000000     0.064000000     5.490000000
H     4.708000000    -0.112000000     3.987000000
O     4.811000000    -4.887000000     0.526000000
H     4.602000000    -4.897000000     1.460000000
H     4.745000000    -3.966000000     0.275000000
O     0.376000000    -7.364000000     0.910000000
H     0.204000000    -6.748000000     0.198000000
H    -0.110000000    -8.152000000     0.668000000
O     0.437000000     3.616000000    -4.008000000
H     0.875000000     4.412000000    -3.707000000
H    -0.274000000     3.483000000    -3.381000000
O    -0.849000000     5.621000000    -0.454000000
H    -1.614000000     6.196000000    -0.440000000
H    -0.691000000     5.411000000     0.467000000
O     0.674000000    -3.233000000    -2.779000000
H     0.159000000    -2.463000000    -3.017000000
H     1.466000000    -3.166000000    -3.312000000
O    -6.349000000     2.220000000     3.300000000
H    -5.681000000     1.934000000     2.677000000
H    -6.831000000     1.422000000     3.517000000
O    -2.877000000    -4.318000000    -0.675000000
H    -3.076000000    -3.403000000    -0.475000000
H    -2.785000000    -4.340000000    -1.628000000
O    -7.724000000    -1.279000000     2.873000000
H    -7.025000000    -1.004000000     2.278000000
H    -8.373000000    -1.694000000     2.305000000
O     4.387000000    -2.327000000    -0.560000000
H     4.570000000    -1.866000000     0.258000000
H     3.739000000    -1.781000000    -1.004000000
O     4.711000000     0.820000000    -0.929000000
H     5.170000000     1.256000000    -1.647000000
H     4.200000000     0.132000000    -1.355000000
O    -4.255000000     4.860000000     1.422000000
H    -4.340000000     4.143000000     0.793000000
H    -3.942000000     5.600000000     0.902000000
O     1.776000000     2.786000000     3.448000000
H     2.159000000     2.656000000     2.581000000
H     1.080000000     2.131000000     3.503000000
O    -6.783000000     3.564000000    -1.323000000
H    -5.852000000     3.374000000    -1.208000000
H    -7.205000000     2.706000000    -1.313000000
O    -4.092000000     1.100000000     1.962000000
H    -4.146000000     0.764000000     1.067000000
H    -3.863000000     0.336000000     2.492000000
O     7.272000000    -0.146000000     2.122000000
H     7.697000000    -1.004000000     2.099000000
H     7.923000000     0.433000000     2.518000000
O     2.812000000    -0.802000000    -2.347000000
H     2.112000000    -0.151000000    -2.397000000
H     3.182000000    -0.824000000    -3.230000000
O    -0.790000000    -1.209000000    -3.344000000
H    -1.453000000    -1.122000000    -4.029000000
H    -1.263000000    -1.041000000    -2.529000000
O    -5.542000000    -2.615000000    -2.092000000
H    -6.255000000    -2.335000000    -1.518000000
H    -4.755000000    -2.235000000    -1.701000000
O    -8.280000000    -1.927000000    -1.473000000
H    -7.672000000    -1.321000000    -1.896000000
H    -9.000000000    -2.018000000    -2.096000000
O     2.789000000     1.443000000     6.595000000
H     2.857000000     2.236000000     7.128000000
H     2.848000000     1.756000000     5.692000000
O     0.846000000    -3.304000000     3.115000000
H     0.337000000    -2.625000000     2.674000000
H     0.271000000    -4.069000000     3.121000000
O    -4.737000000     0.983000000    -3.605000000
H    -4.690000000     0.720000000    -2.686000000
H    -5.560000000     0.608000000    -3.920000000
O    -1.014000000    -5.127000000    -4.451000000
H    -0.572000000    -4.868000000    -5.260000000
H    -0.515000000    -4.696000000    -3.757000000
O    -3.979000000    -5.875000000     1.317000000
H    -3.419000000    -5.422000000     0.686000000
H    -4.610000000    -5.211000000     1.596000000
O    -0.268000000     1.028000000     3.976000000
H    -0.188000000     0.978000000     4.929000000
H    -1.012000000     1.612000000     3.829000000
