158
-3049.80812
C    -1.376000000     0.121000000    -0.569000000
H    -2.354000000     0.316000000    -1.001000000
C    -0.996000000     0.656000000     0.659000000
H    -1.661000000     1.095000000     1.399000000
C     0.345000000     0.579000000     1.047000000
H     0.755000000     0.913000000     1.963000000
C     1.289000000    -0.115000000     0.217000000
H     2.334000000    -0.316000000     0.437000000
C     0.861000000    -0.654000000    -0.985000000
H     1.664000000    -1.154000000    -1.520000000
C    -0.457000000    -0.610000000    -1.369000000
C    -0.883000000    -1.274000000    -2.705000000
O    -1.988000000    -1.751000000    -2.854000000
O    -0.026000000    -1.453000000    -3.529000000
O    -2.018000000     4.401000000     1.707000000
H    -1.288000000     4.371000000     1.088000000
H    -2.764000000     4.059000000     1.215000000
O     3.352000000    -3.059000000    -2.127000000
H     3.255000000    -2.405000000    -2.818000000
H     2.519000000    -3.530000000    -2.124000000
O    -0.529000000     4.131000000     4.041000000
H    -1.050000000     4.676000000     4.632000000
H    -1.034000000     4.109000000     3.228000000
O    -2.159000000    -6.189000000    -1.198000000
H    -1.878000000    -5.405000000    -0.726000000
H    -3.113000000    -6.117000000    -1.234000000
O     2.240000000     0.029000000     6.434000000
H     1.590000000    -0.413000000     5.889000000
H     2.154000000    -0.383000000     7.293000000
O     3.116000000    -2.580000000     2.345000000
H     2.317000000    -3.050000000     2.109000000
H     3.821000000    -3.206000000     2.177000000
O     2.133000000     5.125000000     5.004000000
H     1.239000000     4.877000000     4.768000000
H     2.436000000     4.417000000     5.573000000
O    -4.798000000     0.156000000     4.884000000
H    -5.038000000    -0.771000000     4.901000000
H    -3.846000000     0.155000000     4.785000000
O     3.293000000     2.496000000     1.098000000
H     2.608000000     3.051000000     1.472000000
H     3.322000000     2.742000000     0.174000000
O     4.632000000    -0.696000000    -4.571000000
H     3.792000000    -0.726000000    -5.028000000
H     5.193000000    -0.165000000    -5.136000000
O    -6.641000000    -2.074000000    -1.113000000
H    -6.333000000    -2.708000000    -0.466000000
H    -5.945000000    -2.044000000    -1.769000000
O    -0.215000000     3.241000000    -4.913000000
H    -0.354000000     3.640000000    -5.772000000
H    -0.945000000     2.631000000    -4.811000000
O     7.100000000    -2.791000000     0.383000000
H     6.161000000    -2.610000000     0.440000000
H     7.496000000    -2.203000000     1.026000000
O    -4.080000000    -1.740000000    -6.853000000
H    -3.277000000    -2.125000000    -6.502000000
H    -3.926000000    -0.796000000    -6.823000000
O     2.473000000     2.814000000     6.433000000
H     2.431000000     2.987000000     7.373000000
H     2.431000000     1.860000000     6.363000000
O    -3.058000000     2.309000000    -4.943000000
H    -2.976000000     1.356000000    -4.906000000
H    -3.534000000     2.540000000    -4.145000000
O    -3.623000000    -0.237000000    -4.391000000
H    -3.223000000    -1.102000000    -4.300000000
H    -4.555000000    -0.417000000    -4.517000000
O    -0.707000000     0.596000000    -6.077000000
H    -0.993000000    -0.066000000    -5.447000000
H    -1.489000000     0.787000000    -6.595000000
O    -4.732000000    -3.748000000     0.796000000
H    -5.322000000    -3.417000000     1.473000000
H    -3.979000000    -3.158000000     0.826000000
O     1.914000000     1.820000000    -6.359000000
H     1.031000000     1.467000000    -6.254000000
H     1.804000000     2.572000000    -6.940000000
O    -1.098000000    -1.129000000     7.364000000
H    -0.536000000    -1.295000000     8.122000000
H    -1.097000000    -0.177000000     7.270000000
O     3.643000000     0.367000000     3.105000000
H     3.492000000     1.143000000     2.566000000
H     3.288000000    -0.357000000     2.588000000
O     1.938000000    -3.536000000     4.825000000
H     2.843000000    -3.266000000     4.985000000
H     1.494000000    -2.733000000     4.551000000
O     4.437000000    -5.365000000    -1.013000000
H     4.548000000    -5.810000000    -1.853000000
H     4.255000000    -4.455000000    -1.246000000
O     0.071000000     3.486000000     0.052000000
H    -0.184000000     2.567000000     0.128000000
H     1.028000000     3.467000000     0.019000000
O    -0.364000000    -5.098000000    -6.121000000
H    -0.320000000    -6.001000000    -6.437000000
H     0.542000000    -4.875000000    -5.907000000
O    -4.741000000     2.864000000    -2.680000000
H    -5.129000000     2.063000000    -2.328000000
H    -4.413000000     3.330000000    -1.911000000
O    -1.088000000    -2.268000000    -8.191000000
H    -0.817000000    -2.513000000    -7.306000000
H    -1.825000000    -2.848000000    -8.384000000
O    -1.745000000    -3.431000000    -0.616000000
H    -2.059000000    -2.739000000    -1.199000000
H    -1.587000000    -2.988000000     0.218000000
O    -0.518000000     1.566000000     4.799000000
H    -0.707000000     1.617000000     5.736000000
H    -0.306000000     2.465000000     4.548000000
O     4.869000000     0.342000000     5.506000000
H     4.382000000     0.343000000     4.683000000
H     4.208000000     0.171000000     6.176000000
O     1.994000000    -2.293000000    -4.676000000
H     1.191000000    -1.989000000    -4.253000000
H     2.120000000    -1.693000000    -5.411000000
O     5.209000000    -1.021000000     0.527000000
H     4.687000000    -0.956000000     1.326000000
H     4.627000000    -0.706000000    -0.165000000
O     1.981000000     4.360000000     2.356000000
H     1.787000000     4.168000000     3.274000000
H     2.810000000     4.837000000     2.382000000
O    -0.082000000     5.946000000    -1.260000000
H    -0.120000000     5.105000000    -0.805000000
H    -0.664000000     6.517000000    -0.758000000
O     2.555000000     3.328000000    -1.493000000
H     2.857000000     2.671000000    -2.120000000
H     1.787000000     3.720000000    -1.908000000
O     4.109000000     0.062000000    -1.791000000
H     4.691000000    -0.404000000    -2.391000000
H     3.408000000     0.397000000    -2.350000000
O    -5.445000000     0.737000000    -0.806000000
H    -4.665000000     0.826000000    -0.258000000
H    -5.751000000    -0.155000000    -0.643000000
O     2.828000000    -0.689000000    -6.762000000
H     2.734000000     0.262000000    -6.710000000
H     3.433000000    -0.831000000    -7.490000000
O    -2.036000000    -2.717000000     2.029000000
H    -1.118000000    -2.868000000     2.256000000
H    -2.521000000    -2.965000000     2.816000000
O     2.075000000     0.803000000    -3.447000000
H     1.465000000     0.078000000    -3.587000000
H     2.122000000     1.242000000    -4.296000000
O     2.479000000    -4.935000000    -5.377000000
H     2.344000000    -4.139000000    -4.863000000
H     3.050000000    -4.662000000    -6.096000000
O     1.052000000    -4.570000000    -1.806000000
H     1.232000000    -4.542000000    -0.866000000
H     0.124000000    -4.346000000    -1.879000000
O     5.945000000     2.727000000     1.978000000
H     6.489000000     1.964000000     1.781000000
H     5.079000000     2.497000000     1.644000000
O    -4.528000000    -2.797000000    -2.489000000
H    -3.693000000    -2.335000000    -2.558000000
H    -4.354000000    -3.663000000    -2.859000000
O     0.329000000    -1.200000000     4.523000000
H    -0.465000000    -1.437000000     5.003000000
H     0.346000000    -0.244000000     4.546000000
O    -1.716000000    -2.726000000    -5.574000000
H    -1.282000000    -3.547000000    -5.805000000
H    -1.426000000    -2.545000000    -4.680000000
O    -2.348000000    -0.063000000     3.627000000
H    -1.564000000     0.484000000     3.587000000
H    -2.270000000    -0.648000000     2.873000000
