158
-3035.73162
C     0.601000000    -0.817000000     1.106000000
H     0.843000000    -1.307000000     2.046000000
C     0.348000000     0.533000000     1.065000000
H     0.613000000     1.136000000     1.929000000
C    -0.322000000     1.182000000     0.020000000
H    -0.537000000     2.195000000     0.016000000
C    -0.580000000     0.482000000    -1.138000000
H    -1.080000000     1.044000000    -1.923000000
C    -0.171000000    -0.885000000    -1.243000000
H    -0.212000000    -1.422000000    -2.187000000
C     0.342000000    -1.553000000    -0.048000000
C     0.838000000    -2.949000000    -0.135000000
O     0.860000000    -3.598000000    -1.180000000
O     1.217000000    -3.488000000     0.932000000
O     3.235000000     0.547000000    -3.864000000
H     3.759000000    -0.233000000    -4.049000000
H     2.935000000     0.426000000    -2.963000000
O    -6.150000000     2.105000000     0.627000000
H    -6.446000000     2.757000000     1.262000000
H    -6.883000000     2.014000000     0.018000000
O    -1.061000000     4.844000000     2.482000000
H    -0.295000000     4.491000000     2.030000000
H    -1.636000000     5.145000000     1.778000000
O    -0.620000000    -3.729000000     2.916000000
H    -1.413000000    -3.576000000     2.402000000
H     0.090000000    -3.398000000     2.366000000
O     4.725000000    -6.723000000    -0.470000000
H     5.670000000    -6.677000000    -0.614000000
H     4.630000000    -6.783000000     0.480000000
O    -1.580000000    -4.590000000    -1.732000000
H    -1.656000000    -4.712000000    -2.678000000
H    -0.710000000    -4.211000000    -1.608000000
O    -4.901000000     0.004000000     1.897000000
H    -5.349000000     0.619000000     1.316000000
H    -4.223000000    -0.392000000     1.349000000
O     0.363000000     6.886000000     4.109000000
H     0.120000000     6.238000000     3.447000000
H     0.707000000     7.624000000     3.606000000
O    -3.481000000     4.686000000     4.008000000
H    -2.575000000     4.484000000     3.776000000
H    -3.673000000     5.499000000     3.540000000
O     1.833000000     2.242000000     4.282000000
H     2.337000000     2.512000000     5.049000000
H     2.458000000     2.286000000     3.558000000
O     3.664000000     3.691000000    -1.020000000
H     3.362000000     3.930000000    -1.896000000
H     3.611000000     2.735000000    -1.001000000
O    -0.078000000     6.349000000    -1.147000000
H     0.279000000     5.897000000    -0.383000000
H    -0.525000000     7.115000000    -0.786000000
O    -0.236000000    -8.007000000     1.733000000
H     0.271000000    -7.414000000     1.178000000
H    -1.145000000    -7.736000000     1.605000000
O     1.516000000    -2.183000000    -6.020000000
H     1.660000000    -2.493000000    -5.126000000
H     1.914000000    -2.856000000    -6.573000000
O     3.077000000    -0.685000000     4.124000000
H     3.307000000     0.242000000     4.061000000
H     2.267000000    -0.697000000     4.633000000
O     4.924000000    -1.768000000     0.108000000
H     4.359000000    -2.466000000    -0.224000000
H     5.810000000    -2.124000000     0.039000000
O    -0.456000000     1.944000000     6.902000000
H    -0.551000000     1.930000000     5.950000000
H    -1.312000000     1.672000000     7.232000000
O    -1.790000000    -4.076000000    -4.813000000
H    -1.448000000    -3.382000000    -5.377000000
H    -2.682000000    -3.798000000    -4.605000000
O     4.630000000    -4.030000000    -4.606000000
H     4.553000000    -4.944000000    -4.880000000
H     3.820000000    -3.854000000    -4.128000000
O    -3.228000000     1.903000000    -5.804000000
H    -3.953000000     1.809000000    -5.186000000
H    -2.659000000     2.562000000    -5.407000000
O    -4.870000000     3.308000000    -1.345000000
H    -5.712000000     3.761000000    -1.300000000
H    -4.947000000     2.595000000    -0.712000000
O     3.391000000     1.762000000     2.217000000
H     3.688000000     2.621000000     1.915000000
H     4.183000000     1.225000000     2.229000000
O    -1.112000000    -2.183000000    -6.431000000
H    -0.186000000    -2.012000000    -6.256000000
H    -1.123000000    -2.566000000    -7.308000000
O    -5.101000000     2.164000000    -3.864000000
H    -4.724000000     2.388000000    -3.013000000
H    -5.933000000     2.637000000    -3.890000000
O    -1.030000000     2.716000000     4.284000000
H    -0.206000000     2.231000000     4.247000000
H    -0.877000000     3.489000000     3.740000000
O    -2.659000000     5.724000000     0.528000000
H    -2.856000000     6.583000000     0.155000000
H    -2.336000000     5.210000000    -0.212000000
O     0.589000000    -6.783000000    -3.573000000
H    -0.071000000    -7.182000000    -4.139000000
H     0.315000000    -7.014000000    -2.685000000
O    -2.219000000     3.839000000    -1.536000000
H    -3.166000000     3.707000000    -1.489000000
H    -1.864000000     2.968000000    -1.716000000
O     0.431000000    -5.812000000     4.406000000
H     1.330000000    -5.504000000     4.295000000
H    -0.056000000    -5.396000000     3.695000000
O    -0.558000000    -7.007000000    -1.063000000
H     0.236000000    -6.675000000    -0.644000000
H    -1.053000000    -6.220000000    -1.295000000
O    -3.474000000    -0.669000000    -2.664000000
H    -4.321000000    -0.634000000    -3.109000000
H    -2.929000000    -1.214000000    -3.231000000
O     5.432000000     0.169000000     2.167000000
H     5.060000000    -0.368000000     1.467000000
H     5.523000000    -0.431000000     2.906000000
O     4.070000000    -3.979000000    -1.248000000
H     4.343000000    -4.893000000    -1.327000000
H     3.165000000    -4.025000000    -0.939000000
O     1.990000000    -4.194000000    -3.502000000
H     1.647000000    -3.883000000    -2.665000000
H     1.537000000    -5.023000000    -3.655000000
O     2.460000000    -4.034000000     5.014000000
H     3.063000000    -3.418000000     4.596000000
H     3.028000000    -4.629000000     5.504000000
O    -1.889000000     4.144000000    -4.577000000
H    -1.607000000     4.572000000    -3.769000000
H    -2.602000000     4.692000000    -4.903000000
O     1.601000000    -5.968000000     0.400000000
H     1.143000000    -5.227000000     0.796000000
H     2.526000000    -5.727000000     0.438000000
O     3.282000000     0.475000000    -0.745000000
H     2.612000000     0.731000000    -0.112000000
H     3.678000000    -0.312000000    -0.370000000
O     1.408000000     4.935000000     1.109000000
H     2.184000000     5.405000000     1.413000000
H     1.757000000     4.186000000     0.624000000
O    -3.035000000    -3.382000000     1.385000000
H    -3.953000000    -3.485000000     1.135000000
H    -2.650000000    -2.864000000     0.678000000
O     1.806000000     6.588000000    -3.148000000
H     1.172000000     6.605000000    -2.431000000
H     2.084000000     5.674000000    -3.201000000
O     0.724000000    -1.556000000     5.422000000
H     1.039000000    -2.402000000     5.103000000
H    -0.044000000    -1.368000000     4.882000000
O     5.916000000    -4.307000000     3.271000000
H     6.540000000    -3.924000000     2.654000000
H     5.069000000    -4.236000000     2.830000000
O     2.273000000     3.815000000    -3.544000000
H     2.725000000     2.973000000    -3.593000000
H     1.803000000     3.883000000    -4.375000000
O    -2.242000000    -0.375000000     3.955000000
H    -2.889000000     0.265000000     4.248000000
H    -2.383000000    -0.444000000     3.011000000
O    -2.754000000    -0.771000000     0.217000000
H    -1.881000000    -0.379000000     0.223000000
H    -2.977000000    -0.846000000    -0.710000000
O    -4.334000000     1.281000000     4.086000000
H    -4.379000000     0.795000000     3.263000000
H    -4.281000000     2.199000000     3.820000000
O     3.514000000    -3.110000000     2.503000000
H     2.713000000    -3.348000000     2.036000000
H     3.302000000    -2.282000000     2.936000000
