158
-3024.67695
C    -1.159000000    -0.770000000    -0.475000000
H    -2.099000000    -1.201000000    -0.809000000
C    -1.156000000     0.167000000     0.542000000
H    -2.089000000     0.577000000     0.922000000
C     0.018000000     0.769000000     0.971000000
H    -0.096000000     1.432000000     1.863000000
C     1.219000000     0.369000000     0.373000000
H     2.117000000     0.792000000     0.817000000
C     1.226000000    -0.567000000    -0.654000000
H     2.173000000    -0.879000000    -1.089000000
C     0.012000000    -1.132000000    -1.106000000
C    -0.029000000    -2.120000000    -2.263000000
O    -1.136000000    -2.461000000    -2.760000000
O     1.001000000    -2.566000000    -2.686000000
O     0.742000000     4.075000000    -0.385000000
H     0.011000000     4.691000000    -0.421000000
H     0.330000000     3.212000000    -0.434000000
O     2.707000000     2.252000000     3.442000000
H     2.678000000     2.524000000     2.524000000
H     3.436000000     2.748000000     3.815000000
O     0.271000000    -6.603000000    -2.195000000
H     0.798000000    -7.399000000    -2.127000000
H     0.878000000    -5.895000000    -1.978000000
O     3.983000000     5.380000000     0.670000000
H     3.246000000     5.857000000     0.290000000
H     4.234000000     4.749000000    -0.005000000
O     0.896000000    -4.239000000    -4.853000000
H     1.038000000    -3.693000000    -4.079000000
H     1.698000000    -4.755000000    -4.932000000
O     2.118000000     1.428000000     6.956000000
H     2.625000000     0.706000000     6.583000000
H     2.695000000     1.811000000     7.616000000
O    -1.750000000    -0.973000000     3.728000000
H    -1.636000000    -1.920000000     3.805000000
H    -1.376000000    -0.756000000     2.874000000
O     2.798000000     1.217000000    -2.164000000
H     2.135000000     0.565000000    -2.392000000
H     3.379000000     1.243000000    -2.924000000
O    -2.108000000    -4.396000000    -4.656000000
H    -1.280000000    -4.740000000    -4.991000000
H    -1.863000000    -3.898000000    -3.877000000
O     1.971000000     3.268000000    -4.482000000
H     1.810000000     2.380000000    -4.163000000
H     1.192000000     3.760000000    -4.224000000
O    -2.492000000    -6.536000000    -1.650000000
H    -1.757000000    -6.580000000    -2.262000000
H    -2.775000000    -5.622000000    -1.682000000
O     1.267000000     0.298000000    -4.468000000
H     1.582000000    -0.266000000    -5.174000000
H     0.329000000     0.112000000    -4.413000000
O     0.692000000    -2.126000000     2.383000000
H     0.618000000    -1.572000000     1.605000000
H     1.056000000    -1.549000000     3.054000000
O    -4.103000000     4.383000000     0.825000000
H    -4.755000000     3.682000000     0.820000000
H    -3.337000000     3.993000000     1.246000000
O    -1.173000000     0.366000000     7.390000000
H    -0.658000000     0.771000000     6.692000000
H    -1.789000000    -0.207000000     6.932000000
O    -2.153000000    -0.346000000    -4.340000000
H    -2.377000000    -0.953000000    -5.044000000
H    -1.786000000    -0.901000000    -3.652000000
O    -1.069000000     2.231000000    -1.464000000
H    -2.004000000     2.026000000    -1.451000000
H    -0.662000000     1.526000000    -0.959000000
O    -4.602000000    -0.469000000     2.669000000
H    -4.429000000     0.086000000     3.430000000
H    -4.864000000    -1.311000000     3.042000000
O    -4.943000000    -4.488000000    -4.549000000
H    -5.358000000    -5.119000000    -5.137000000
H    -4.052000000    -4.396000000    -4.887000000
O    -3.671000000     1.950000000    -1.474000000
H    -4.000000000     2.445000000    -0.724000000
H    -4.402000000     1.386000000    -1.727000000
O    -1.104000000    -3.999000000     1.106000000
H    -0.977000000    -4.946000000     1.171000000
H    -0.512000000    -3.632000000     1.762000000
O     6.012000000     2.184000000     0.875000000
H     6.340000000     1.368000000     0.497000000
H     5.143000000     2.294000000     0.490000000
O    -0.823000000     6.462000000    -0.791000000
H    -1.686000000     6.584000000    -1.186000000
H    -0.986000000     6.480000000     0.152000000
O    -3.534000000     1.020000000     4.677000000
H    -3.205000000     1.558000000     5.396000000
H    -2.798000000     0.455000000     4.443000000
O     4.875000000    -0.282000000     4.191000000
H     4.532000000    -1.130000000     3.909000000
H     4.389000000    -0.081000000     4.990000000
O     4.073000000    -2.843000000    -1.153000000
H     3.543000000    -2.420000000    -1.829000000
H     4.484000000    -3.583000000    -1.599000000
O    -1.170000000     6.608000000     1.819000000
H    -1.777000000     7.340000000     1.929000000
H    -1.426000000     5.980000000     2.495000000
O     3.799000000    -1.680000000    -3.637000000
H     4.054000000    -1.795000000    -4.553000000
H     2.844000000    -1.628000000    -3.659000000
O     1.820000000     6.923000000     2.117000000
H     0.900000000     6.661000000     2.150000000
H     1.865000000     7.706000000     2.665000000
O     3.189000000     2.709000000     0.133000000
H     3.056000000     2.161000000    -0.641000000
H     2.528000000     3.397000000     0.055000000
O    -5.373000000    -2.448000000    -2.054000000
H    -4.616000000    -3.027000000    -2.137000000
H    -5.542000000    -2.409000000    -1.112000000
O    -0.635000000     3.777000000    -3.659000000
H    -1.346000000     4.395000000    -3.489000000
H    -0.689000000     3.147000000    -2.940000000
O    -4.056000000     5.662000000     3.864000000
H    -3.612000000     4.823000000     3.743000000
H    -4.019000000     5.819000000     4.807000000
O     4.987000000    -3.380000000     1.396000000
H     4.568000000    -3.334000000     0.537000000
H     5.581000000    -2.630000000     1.414000000
O    -5.497000000     0.367000000    -2.800000000
H    -5.366000000    -0.522000000    -3.129000000
H    -5.194000000     0.932000000    -3.511000000
O    -0.976000000     4.237000000     4.770000000
H    -0.747000000     5.165000000     4.821000000
H    -1.225000000     4.003000000     5.664000000
O     1.999000000    -4.620000000    -1.576000000
H     1.509000000    -4.093000000    -2.206000000
H     2.821000000    -4.145000000    -1.454000000
O     6.402000000    -0.755000000    -3.509000000
H     6.941000000    -1.470000000    -3.849000000
H     5.644000000    -1.190000000    -3.120000000
O    -5.877000000    -2.070000000     0.870000000
H    -6.723000000    -1.683000000     1.097000000
H    -5.233000000    -1.425000000     1.163000000
O    -2.533000000     2.820000000     2.376000000
H    -1.771000000     2.908000000     2.950000000
H    -3.186000000     2.370000000     2.912000000
O    -5.354000000     1.675000000     1.311000000
H    -6.089000000     1.483000000     0.729000000
H    -5.085000000     0.820000000     1.648000000
O     2.018000000    -4.761000000     1.398000000
H     1.919000000    -4.777000000     0.446000000
H     2.037000000    -3.830000000     1.622000000
O     1.423000000    -2.269000000    -6.525000000
H     1.102000000    -2.945000000    -5.929000000
H     1.540000000    -2.723000000    -7.360000000
O    -2.784000000    -3.870000000    -1.067000000
H    -2.191000000    -3.452000000    -1.692000000
H    -2.358000000    -3.753000000    -0.218000000
O     2.149000000     6.153000000    -1.482000000
H     1.778000000     5.337000000    -1.147000000
H     2.800000000     5.873000000    -2.126000000
O     1.509000000    -0.227000000     4.137000000
H     0.706000000    -0.106000000     4.644000000
H     1.764000000     0.658000000     3.878000000
O     3.377000000    -5.243000000    -5.209000000
H     4.298000000    -5.024000000    -5.064000000
H     3.393000000    -6.140000000    -5.543000000
O    -0.087000000     1.758000000     5.273000000
H    -0.352000000     2.655000000     5.071000000
H     0.744000000     1.852000000     5.738000000
