158
-3032.05723
C    -0.182000000    -0.913000000     1.122000000
H    -0.407000000    -1.460000000     2.034000000
C    -0.378000000     0.459000000     1.158000000
H    -0.685000000     0.902000000     2.102000000
C    -0.182000000     1.198000000     0.032000000
H    -0.312000000     2.256000000     0.117000000
C     0.270000000     0.633000000    -1.145000000
H     0.493000000     1.277000000    -1.992000000
C     0.350000000    -0.754000000    -1.235000000
H     0.538000000    -1.231000000    -2.194000000
C     0.114000000    -1.534000000    -0.075000000
C     0.188000000    -3.049000000    -0.153000000
O     0.344000000    -3.661000000    -1.202000000
O     0.062000000    -3.721000000     0.853000000
O     4.850000000     1.033000000    -1.156000000
H     4.985000000     0.202000000    -1.612000000
H     5.698000000     1.473000000    -1.203000000
O    -3.907000000     6.498000000    -3.356000000
H    -3.186000000     5.913000000    -3.122000000
H    -3.863000000     7.203000000    -2.710000000
O    -0.412000000     4.731000000     2.675000000
H     0.007000000     5.396000000     3.221000000
H    -1.197000000     5.161000000     2.335000000
O     2.013000000    -3.578000000     2.707000000
H     1.662000000    -2.959000000     3.348000000
H     1.317000000    -3.667000000     2.056000000
O     4.806000000    -5.858000000    -0.659000000
H     3.853000000    -5.826000000    -0.741000000
H     5.041000000    -5.015000000    -0.271000000
O    -0.242000000    -3.691000000    -3.907000000
H    -0.908000000    -4.377000000    -3.942000000
H    -0.049000000    -3.592000000    -2.974000000
O    -2.149000000    -4.200000000     5.044000000
H    -1.757000000    -4.941000000     5.506000000
H    -1.964000000    -4.368000000     4.120000000
O    -3.071000000    -1.748000000     2.596000000
H    -2.789000000    -2.592000000     2.244000000
H    -2.949000000    -1.133000000     1.873000000
O     1.988000000    -3.044000000    -5.256000000
H     1.634000000    -3.291000000    -6.111000000
H     1.281000000    -3.235000000    -4.640000000
O    -2.995000000     5.307000000     3.708000000
H    -2.737000000     6.159000000     4.059000000
H    -3.370000000     5.504000000     2.850000000
O     2.102000000     3.661000000     2.597000000
H     2.338000000     3.449000000     1.694000000
H     1.223000000     4.035000000     2.534000000
O     0.041000000     2.863000000    -4.893000000
H    -0.899000000     2.772000000    -4.732000000
H     0.354000000     1.964000000    -4.994000000
O     0.129000000    -5.875000000     2.565000000
H     0.010000000    -5.260000000     1.842000000
H    -0.746000000    -5.981000000     2.937000000
O    -2.222000000     1.455000000     6.980000000
H    -2.289000000     0.764000000     6.320000000
H    -2.884000000     2.096000000     6.723000000
O     3.673000000    -1.054000000    -4.312000000
H     3.445000000    -0.883000000    -5.225000000
H     3.405000000    -1.961000000    -4.164000000
O    -0.242000000     3.098000000     6.813000000
H     0.177000000     2.645000000     6.081000000
H    -1.043000000     2.598000000     6.976000000
O    -1.136000000    -0.646000000    -4.699000000
H    -1.141000000    -0.844000000    -5.635000000
H    -0.973000000    -1.489000000    -4.277000000
O    -2.578000000     2.865000000    -4.859000000
H    -3.271000000     2.740000000    -4.211000000
H    -2.933000000     2.490000000    -5.665000000
O    -0.875000000    -8.804000000     0.392000000
H    -0.530000000    -7.960000000     0.099000000
H    -1.323000000    -8.607000000     1.214000000
O    -3.147000000     2.236000000     0.109000000
H    -3.635000000     3.059000000     0.071000000
H    -2.561000000     2.339000000     0.859000000
O     5.161000000     2.874000000     2.274000000
H     4.602000000     2.153000000     1.986000000
H     6.003000000     2.461000000     2.468000000
O    -3.733000000     4.901000000     0.614000000
H    -4.598000000     4.689000000     0.963000000
H    -3.780000000     5.835000000     0.409000000
O    -4.658000000     2.263000000    -3.268000000
H    -4.367000000     1.419000000    -2.921000000
H    -5.519000000     2.400000000    -2.873000000
O     1.405000000     2.123000000     4.959000000
H     1.576000000     1.181000000     4.991000000
H     1.861000000     2.422000000     4.172000000
O    -0.353000000     6.100000000    -0.664000000
H    -0.989000000     6.669000000    -0.230000000
H     0.332000000     5.964000000    -0.010000000
O     1.508000000    -6.291000000    -2.562000000
H     0.677000000    -5.847000000    -2.733000000
H     1.398000000    -6.678000000    -1.694000000
O    -2.031000000     4.911000000    -2.217000000
H    -2.596000000     4.501000000    -1.561000000
H    -1.312000000     5.289000000    -1.710000000
O     2.346000000    -5.102000000     5.406000000
H     3.250000000    -5.311000000     5.170000000
H     2.056000000    -4.492000000     4.728000000
O     1.461000000    -6.263000000     0.097000000
H     2.200000000    -6.231000000     0.704000000
H     1.058000000    -5.397000000     0.166000000
O    -2.906000000     0.135000000    -2.740000000
H    -2.408000000    -0.153000000    -3.505000000
H    -2.314000000     0.728000000    -2.278000000
O     3.901000000    -2.507000000     0.871000000
H     3.685000000    -2.987000000     0.072000000
H     3.281000000    -2.834000000     1.523000000
O     3.368000000     1.875000000    -3.844000000
H     3.747000000     1.871000000    -2.965000000
H     3.048000000     0.981000000    -3.971000000
O     2.925000000    -3.726000000    -1.597000000
H     1.975000000    -3.715000000    -1.483000000
H     3.077000000    -4.378000000    -2.280000000
O    -0.357000000     5.388000000    -4.481000000
H    -0.113000000     4.508000000    -4.769000000
H    -1.110000000     5.251000000    -3.906000000
O    -1.985000000    -5.802000000    -3.559000000
H    -2.914000000    -5.649000000    -3.384000000
H    -1.895000000    -6.755000000    -3.558000000
O     3.110000000    -6.604000000     2.469000000
H     3.842000000    -6.154000000     2.891000000
H     2.346000000    -6.068000000     2.680000000
O     3.390000000     0.470000000     2.056000000
H     3.305000000    -0.436000000     1.758000000
H     2.577000000     0.891000000     1.776000000
O    -2.265000000    -4.261000000     1.788000000
H    -2.874000000    -4.819000000     1.304000000
H    -1.509000000    -4.171000000     1.209000000
O     2.075000000     6.538000000    -1.927000000
H     1.211000000     6.355000000    -1.559000000
H     2.455000000     5.674000000    -2.087000000
O     1.827000000     3.936000000    -2.514000000
H     0.974000000     3.961000000    -2.948000000
H     2.337000000     3.307000000    -3.024000000
O    -5.272000000    -2.703000000     3.814000000
H    -5.485000000    -2.181000000     4.587000000
H    -4.403000000    -2.399000000     3.551000000
O     0.766000000    -2.259000000     4.592000000
H     1.330000000    -1.557000000     4.914000000
H     0.314000000    -2.580000000     5.372000000
O     2.735000000     2.881000000    -0.087000000
H     3.125000000     2.056000000    -0.377000000
H     2.357000000     3.259000000    -0.881000000
O    -3.069000000    -2.019000000     6.709000000
H    -2.569000000    -2.784000000     6.995000000
H    -3.013000000    -2.041000000     5.753000000
O    -2.328000000     2.647000000     3.046000000
H    -2.991000000     3.318000000     2.888000000
H    -1.637000000     3.101000000     3.529000000
O    -3.058000000    -0.444000000     0.112000000
H    -3.361000000     0.445000000    -0.071000000
H    -2.119000000    -0.419000000    -0.070000000
O    -2.624000000     0.328000000     4.566000000
H    -2.443000000    -0.519000000     4.158000000
H    -2.708000000     0.935000000     3.830000000
O    -4.506000000    -3.020000000    -0.609000000
H    -5.288000000    -2.866000000    -1.139000000
H    -4.210000000    -2.145000000    -0.358000000
