158
-3043.49236
C    -0.054000000    -0.645000000     1.304000000
H    -0.318000000    -1.052000000     2.276000000
C    -0.445000000     0.634000000     0.999000000
H    -0.863000000     1.246000000     1.794000000
C    -0.344000000     1.130000000    -0.244000000
H    -0.783000000     2.116000000    -0.531000000
C     0.077000000     0.320000000    -1.295000000
H     0.060000000     0.578000000    -2.351000000
C     0.612000000    -0.890000000    -0.986000000
H     0.911000000    -1.475000000    -1.852000000
C     0.551000000    -1.439000000     0.282000000
C     0.906000000    -2.871000000     0.551000000
O     1.184000000    -3.560000000    -0.393000000
O     0.983000000    -3.245000000     1.685000000
O     3.961000000     1.954000000    -0.608000000
H     3.724000000     1.397000000    -1.350000000
H     4.644000000     1.465000000    -0.150000000
O    -6.271000000     2.259000000     0.475000000
H    -7.009000000     2.698000000     0.897000000
H    -6.672000000     1.711000000    -0.200000000
O     1.529000000     4.421000000     3.484000000
H     0.586000000     4.527000000     3.358000000
H     1.924000000     4.998000000     2.831000000
O     1.550000000    -2.338000000     4.511000000
H     0.969000000    -2.603000000     5.224000000
H     1.103000000    -2.630000000     3.716000000
O    -0.190000000    -3.799000000    -2.731000000
H    -0.279000000    -4.751000000    -2.680000000
H     0.433000000    -3.579000000    -2.039000000
O    -4.355000000    -3.030000000     2.912000000
H    -5.298000000    -3.035000000     2.750000000
H    -3.971000000    -3.373000000     2.105000000
O     2.999000000    -4.588000000    -4.026000000
H     2.732000000    -4.555000000    -4.944000000
H     2.467000000    -5.288000000    -3.647000000
O    -1.251000000     4.717000000     2.838000000
H    -1.459000000     5.441000000     3.429000000
H    -2.021000000     4.151000000     2.873000000
O     2.282000000     1.601000000     2.725000000
H     1.672000000     0.982000000     2.324000000
H     1.744000000     2.362000000     2.940000000
O    -0.975000000     5.838000000     0.263000000
H    -1.015000000     5.134000000     0.910000000
H    -0.612000000     6.583000000     0.742000000
O    -0.955000000     1.913000000    -5.309000000
H    -1.574000000     1.200000000    -5.152000000
H    -0.968000000     2.035000000    -6.259000000
O    -0.580000000    -5.428000000     0.349000000
H     0.268000000    -4.984000000     0.348000000
H    -1.105000000    -4.940000000     0.984000000
O     2.540000000    -1.122000000    -4.754000000
H     2.457000000    -0.856000000    -5.670000000
H     2.497000000    -2.078000000    -4.777000000
O     5.134000000    -6.649000000     1.945000000
H     5.903000000    -6.090000000     1.834000000
H     4.401000000    -6.109000000     1.648000000
O    -2.578000000    -6.759000000     2.017000000
H    -1.690000000    -6.973000000     1.732000000
H    -2.491000000    -5.914000000     2.459000000
O    -1.592000000    -3.784000000    -5.254000000
H    -2.430000000    -3.353000000    -5.088000000
H    -1.123000000    -3.726000000    -4.422000000
O    -3.021000000    -0.033000000    -5.157000000
H    -3.166000000    -0.419000000    -6.021000000
H    -2.756000000    -0.770000000    -4.607000000
O    -3.756000000     3.433000000     0.587000000
H    -3.790000000     4.179000000    -0.012000000
H    -4.616000000     3.021000000     0.507000000
O     1.140000000    -3.933000000    -6.041000000
H     0.263000000    -3.785000000    -5.687000000
H     1.128000000    -3.506000000    -6.898000000
O    -2.879000000    -3.468000000     0.207000000
H    -2.222000000    -3.651000000    -0.465000000
H    -3.380000000    -4.281000000     0.280000000
O    -4.775000000     5.636000000    -0.719000000
H    -5.048000000     6.016000000     0.116000000
H    -4.144000000     6.263000000    -1.073000000
O    -5.841000000     3.429000000    -2.205000000
H    -5.018000000     2.940000000    -2.185000000
H    -5.628000000     4.272000000    -1.803000000
O     0.476000000     0.284000000     6.180000000
H     1.107000000    -0.195000000     6.718000000
H     0.916000000     0.396000000     5.338000000
O    -0.906000000     5.349000000    -2.291000000
H    -0.838000000     5.305000000    -1.337000000
H    -1.503000000     4.637000000    -2.522000000
O     2.299000000    -6.868000000    -2.728000000
H     1.380000000    -6.949000000    -2.473000000
H     2.742000000    -6.566000000    -1.935000000
O    -3.008000000     3.676000000    -3.794000000
H    -3.164000000     3.644000000    -4.738000000
H    -3.273000000     2.811000000    -3.479000000
O     3.399000000    -4.363000000     4.163000000
H     2.848000000    -3.619000000     4.409000000
H     2.781000000    -5.027000000     3.858000000
O     3.342000000    -4.921000000     0.561000000
H     2.786000000    -5.193000000     1.291000000
H     2.761000000    -4.414000000    -0.006000000
O    -3.710000000     1.355000000    -2.931000000
H    -3.623000000     0.861000000    -3.746000000
H    -3.359000000     0.772000000    -2.258000000
O     4.279000000    -1.943000000     2.326000000
H     4.590000000    -2.544000000     1.649000000
H     3.383000000    -2.229000000     2.506000000
O     3.106000000     0.859000000    -3.079000000
H     4.060000000     0.864000000    -3.161000000
H     2.815000000     0.211000000    -3.720000000
O     3.966000000    -2.027000000    -1.392000000
H     3.165000000    -1.811000000    -1.870000000
H     4.169000000    -2.924000000    -1.656000000
O     0.480000000     5.474000000    -4.726000000
H     0.743000000     4.565000000    -4.579000000
H     0.053000000     5.735000000    -3.911000000
O    -0.375000000    -6.503000000    -2.288000000
H    -0.861000000    -6.265000000    -1.499000000
H    -0.934000000    -7.139000000    -2.732000000
O     1.660000000    -5.656000000     2.638000000
H     0.948000000    -6.296000000     2.620000000
H     1.220000000    -4.811000000     2.735000000
O    -1.568000000    -3.909000000     2.693000000
H    -2.063000000    -3.466000000     3.382000000
H    -1.096000000    -3.207000000     2.247000000
O     1.787000000     6.025000000    -0.904000000
H     0.901000000     5.887000000    -1.237000000
H     2.290000000     5.287000000    -1.250000000
O     1.294000000     2.913000000    -3.872000000
H     0.513000000     2.475000000    -4.210000000
H     1.866000000     2.200000000    -3.591000000
O     2.513000000     6.300000000     1.678000000
H     2.179000000     6.298000000     0.781000000
H     3.401000000     5.949000000     1.603000000
O     0.421000000    -4.641000000     5.970000000
H    -0.453000000    -4.984000000     5.783000000
H     0.974000000    -5.420000000     6.037000000
O     3.323000000     4.206000000    -2.560000000
H     3.465000000     3.727000000    -1.744000000
H     2.546000000     3.800000000    -2.945000000
O     5.764000000    -0.166000000    -2.481000000
H     6.069000000    -0.288000000    -3.379000000
H     5.311000000    -0.983000000    -2.269000000
O    -2.055000000    -1.241000000     5.888000000
H    -1.432000000    -0.533000000     5.729000000
H    -2.408000000    -1.448000000     5.022000000
O    -3.202000000     2.995000000     3.139000000
H    -3.626000000     2.144000000     3.255000000
H    -3.317000000     3.196000000     2.211000000
O    -3.426000000    -0.987000000    -0.935000000
H    -4.352000000    -1.204000000    -0.826000000
H    -2.987000000    -1.438000000    -0.214000000
O    -3.091000000    -0.582000000     3.354000000
H    -3.533000000    -1.431000000     3.325000000
H    -3.701000000     0.020000000     2.927000000
O    -2.735000000     7.462000000    -1.560000000
H    -2.142000000     6.931000000    -1.029000000
H    -2.491000000     7.261000000    -2.464000000
O    -2.186000000    -1.729000000    -3.159000000
H    -1.418000000    -2.131000000    -2.753000000
H    -2.673000000    -1.351000000    -2.427000000
