158
-3035.59450
C    -0.984000000    -0.901000000     0.651000000
H    -1.636000000    -1.503000000     1.278000000
C     0.049000000    -0.268000000     1.268000000
H     0.189000000    -0.416000000     2.335000000
C     0.871000000     0.619000000     0.570000000
H     1.689000000     1.126000000     1.094000000
C     0.716000000     0.759000000    -0.805000000
H     1.445000000     1.394000000    -1.302000000
C    -0.329000000     0.120000000    -1.450000000
H    -0.366000000     0.329000000    -2.516000000
C    -1.162000000    -0.746000000    -0.740000000
C    -2.260000000    -1.411000000    -1.405000000
O    -2.784000000    -2.402000000    -0.896000000
O    -2.669000000    -1.074000000    -2.568000000
O     1.742000000     3.908000000    -0.150000000
H     1.646000000     3.080000000     0.320000000
H     2.516000000     4.315000000     0.237000000
O     1.075000000     1.785000000    -4.693000000
H     0.229000000     1.345000000    -4.613000000
H     1.412000000     1.503000000    -5.543000000
O     0.740000000     1.633000000     4.056000000
H     0.519000000     1.363000000     4.947000000
H    -0.105000000     1.709000000     3.612000000
O    -4.116000000     0.549000000    -0.511000000
H    -3.909000000    -0.095000000    -1.188000000
H    -3.907000000     1.393000000    -0.912000000
O     4.631000000     0.310000000     0.862000000
H     4.683000000     0.212000000     1.812000000
H     4.721000000     1.252000000     0.713000000
O    -1.668000000     0.746000000    -7.113000000
H    -2.623000000     0.808000000    -7.097000000
H    -1.463000000     0.045000000    -6.495000000
O    -2.170000000    -3.621000000    -3.660000000
H    -2.394000000    -4.424000000    -3.190000000
H    -2.282000000    -2.925000000    -3.012000000
O     4.382000000     5.331000000     0.079000000
H     4.534000000     5.673000000     0.960000000
H     4.992000000     5.818000000    -0.475000000
O     5.343000000    -0.544000000    -4.235000000
H     4.502000000    -0.149000000    -4.002000000
H     5.109000000    -1.367000000    -4.665000000
O     5.098000000     2.960000000    -1.930000000
H     4.296000000     2.469000000    -2.111000000
H     4.999000000     3.255000000    -1.025000000
O     3.286000000     1.160000000    -2.863000000
H     2.723000000     1.424000000    -3.591000000
H     3.111000000     0.226000000    -2.751000000
O    -2.255000000    -4.624000000     5.122000000
H    -1.482000000    -4.172000000     4.783000000
H    -1.937000000    -5.495000000     5.362000000
O    -0.915000000    -0.942000000    -4.623000000
H    -0.251000000    -1.468000000    -4.177000000
H    -1.729000000    -1.141000000    -4.160000000
O    -5.384000000    -2.861000000     0.014000000
H    -5.638000000    -3.441000000    -0.704000000
H    -4.494000000    -2.584000000    -0.205000000
O    -1.778000000     1.866000000     3.415000000
H    -2.501000000     1.261000000     3.247000000
H    -1.946000000     2.202000000     4.295000000
O     3.009000000    -4.381000000     0.023000000
H     2.928000000    -3.443000000     0.199000000
H     3.929000000    -4.579000000     0.202000000
O    -4.825000000    -2.457000000    -4.083000000
H    -4.246000000    -2.991000000    -4.627000000
H    -4.232000000    -1.950000000    -3.528000000
O    -5.797000000    -3.975000000     2.502000000
H    -5.502000000    -3.336000000     3.150000000
H    -5.739000000    -3.513000000     1.665000000
O    -0.521000000     4.581000000    -5.303000000
H    -0.316000000     4.099000000    -4.502000000
H    -0.156000000     4.043000000    -6.006000000
O    -5.711000000    -1.173000000    -6.257000000
H    -5.424000000    -1.692000000    -5.505000000
H    -5.079000000    -0.456000000    -6.308000000
O    -3.031000000     1.437000000    -3.871000000
H    -2.979000000     0.523000000    -3.590000000
H    -3.091000000     1.935000000    -3.056000000
O    -7.452000000    -2.855000000    -3.162000000
H    -8.075000000    -3.119000000    -3.839000000
H    -6.606000000    -3.170000000    -3.479000000
O    -4.580000000     1.305000000    -6.416000000
H    -5.374000000     1.837000000    -6.367000000
H    -4.093000000     1.528000000    -5.622000000
O    -1.068000000     4.239000000     1.744000000
H    -1.096000000     3.308000000     1.965000000
H    -1.971000000     4.458000000     1.515000000
O     3.108000000    -1.724000000    -2.562000000
H     2.820000000    -1.685000000    -1.650000000
H     2.443000000    -2.254000000    -3.001000000
O     4.555000000     2.918000000     0.797000000
H     5.296000000     2.939000000     1.402000000
H     4.522000000     3.801000000     0.427000000
O     5.633000000    -1.473000000    -0.886000000
H     5.280000000    -0.831000000    -0.271000000
H     5.447000000    -1.104000000    -1.750000000
O     1.291000000     5.467000000     3.172000000
H     0.565000000     4.907000000     2.896000000
H     1.345000000     5.340000000     4.119000000
O     3.169000000     1.723000000     6.925000000
H     3.435000000     2.570000000     7.283000000
H     3.452000000     1.751000000     6.010000000
O     0.607000000     3.721000000    -2.597000000
H     1.134000000     3.777000000    -1.800000000
H     1.089000000     3.115000000    -3.160000000
O    -6.911000000    -0.608000000     0.638000000
H    -7.533000000    -1.330000000     0.548000000
H    -6.070000000    -0.983000000     0.379000000
O    -4.849000000     1.494000000     1.927000000
H    -4.663000000     0.720000000     2.460000000
H    -4.861000000     1.168000000     1.027000000
O    -2.367000000    -6.322000000    -2.791000000
H    -3.151000000    -6.581000000    -3.276000000
H    -1.639000000    -6.632000000    -3.330000000
O    -2.168000000    -4.962000000    -0.184000000
H    -2.156000000    -5.380000000    -1.045000000
H    -2.423000000    -4.057000000    -0.361000000
O     0.020000000    -4.724000000     1.364000000
H    -0.885000000    -4.654000000     1.060000000
H     0.549000000    -4.520000000     0.593000000
O    -5.885000000    -5.078000000    -1.834000000
H    -5.200000000    -5.014000000    -2.500000000
H    -5.859000000    -5.992000000    -1.550000000
O     2.619000000    -1.602000000     0.079000000
H     3.161000000    -0.923000000     0.481000000
H     1.720000000    -1.329000000     0.260000000
O     1.220000000    -1.460000000    -6.436000000
H     0.875000000    -2.094000000    -7.065000000
H     0.445000000    -1.007000000    -6.104000000
O    -3.556000000    -0.618000000     2.990000000
H    -3.721000000    -1.461000000     3.412000000
H    -3.165000000    -0.845000000     2.146000000
O    -2.354000000    -4.660000000    -6.348000000
H    -1.776000000    -5.411000000    -6.214000000
H    -2.402000000    -4.239000000    -5.490000000
O     0.561000000    -3.184000000    -3.469000000
H     0.828000000    -4.017000000    -3.082000000
H    -0.343000000    -3.327000000    -3.747000000
O     1.009000000    -5.468000000     3.829000000
H     0.746000000    -5.038000000     3.015000000
H     1.964000000    -5.511000000     3.779000000
O    -2.762000000     2.642000000    -1.292000000
H    -2.949000000     3.450000000    -1.771000000
H    -1.987000000     2.848000000    -0.770000000
O    -0.126000000    -2.860000000     4.604000000
H     0.271000000    -3.340000000     3.877000000
H     0.369000000    -3.139000000     5.374000000
O     3.676000000     2.578000000     4.277000000
H     2.790000000     2.274000000     4.082000000
H     4.002000000     2.915000000     3.442000000
O    -4.452000000    -2.887000000     4.923000000
H    -3.696000000    -3.474000000     4.891000000
H    -4.514000000    -2.627000000     5.842000000
O    -0.408000000     6.249000000    -0.377000000
H     0.030000000     5.417000000    -0.200000000
H    -0.344000000     6.734000000     0.445000000
O     3.158000000    -0.583000000     3.027000000
H     3.893000000    -0.933000000     3.531000000
H     2.422000000    -1.152000000     3.252000000
