158
-3053.92374
C    -0.522000000    -1.454000000    -0.253000000
H    -0.701000000    -2.526000000    -0.294000000
C     0.184000000    -0.985000000     0.900000000
H     0.319000000    -1.648000000     1.751000000
C     0.576000000     0.349000000     1.072000000
H     1.056000000     0.753000000     2.049000000
C     0.318000000     1.235000000     0.081000000
H     0.595000000     2.286000000     0.113000000
C    -0.418000000     0.797000000    -1.076000000
H    -0.598000000     1.533000000    -1.855000000
C    -0.761000000    -0.524000000    -1.271000000
C    -1.468000000    -0.814000000    -2.630000000
O    -1.951000000    -1.935000000    -2.845000000
O    -1.334000000    -0.046000000    -3.573000000
O    -2.404000000     4.341000000    -1.411000000
H    -2.748000000     3.806000000    -2.126000000
H    -1.575000000     4.683000000    -1.745000000
O     4.676000000    -0.113000000     1.115000000
H     4.043000000     0.587000000     0.959000000
H     5.193000000     0.194000000     1.860000000
O    -1.800000000     1.082000000     4.031000000
H    -0.865000000     1.190000000     4.206000000
H    -2.105000000     0.489000000     4.717000000
O    -1.254000000    -3.337000000    -7.338000000
H    -2.092000000    -2.956000000    -7.077000000
H    -0.664000000    -2.587000000    -7.416000000
O     0.726000000     0.118000000    -5.573000000
H     0.518000000    -0.438000000    -6.324000000
H    -0.083000000     0.144000000    -5.062000000
O    -6.230000000    -1.425000000    -5.380000000
H    -6.321000000    -2.336000000    -5.102000000
H    -5.724000000    -1.011000000    -4.681000000
O    -0.119000000     5.819000000     0.645000000
H     0.061000000     5.983000000    -0.280000000
H    -1.070000000     5.895000000     0.721000000
O     3.068000000     3.510000000    -2.842000000
H     2.350000000     2.939000000    -3.116000000
H     2.911000000     4.332000000    -3.306000000
O     2.911000000     0.758000000     7.588000000
H     3.130000000     0.232000000     6.819000000
H     3.758000000     1.005000000     7.959000000
O    -3.021000000    -3.701000000    -1.170000000
H    -3.055000000    -3.055000000    -0.464000000
H    -2.569000000    -3.252000000    -1.884000000
O     4.737000000    -2.810000000     1.154000000
H     4.564000000    -1.869000000     1.157000000
H     3.882000000    -3.210000000     0.994000000
O     3.078000000    -0.136000000    -1.958000000
H     2.412000000     0.197000000    -1.357000000
H     3.324000000    -0.987000000    -1.596000000
O     3.752000000    -0.655000000     5.524000000
H     3.861000000    -0.096000000     4.755000000
H     3.302000000    -1.433000000     5.192000000
O    -3.105000000    -4.953000000    -4.164000000
H    -3.689000000    -5.364000000    -4.801000000
H    -3.289000000    -4.017000000    -4.239000000
O     1.595000000    -2.489000000    -4.976000000
H     1.750000000    -1.823000000    -5.645000000
H     2.098000000    -3.248000000    -5.273000000
O    -4.452000000    -1.284000000    -3.397000000
H    -4.856000000    -1.210000000    -2.532000000
H    -3.553000000    -1.561000000    -3.219000000
O    -0.208000000     5.700000000    -2.307000000
H    -0.697000000     6.465000000    -2.611000000
H     0.233000000     5.371000000    -3.091000000
O    -2.626000000     1.197000000     1.408000000
H    -2.408000000     1.175000000     2.340000000
H    -1.781000000     1.287000000     0.966000000
O    -2.053000000    -6.542000000    -1.666000000
H    -1.811000000    -7.273000000    -2.235000000
H    -2.440000000    -5.897000000    -2.257000000
O     0.243000000    -3.872000000     3.700000000
H     0.657000000    -4.371000000     4.405000000
H    -0.082000000    -3.079000000     4.127000000
O     3.224000000     0.850000000    -4.596000000
H     2.408000000     0.568000000    -5.010000000
H     3.129000000     0.590000000    -3.679000000
O    -0.954000000    -1.789000000     5.133000000
H    -0.932000000    -2.259000000     5.967000000
H    -1.686000000    -1.178000000     5.223000000
O    -3.202000000     5.769000000     0.911000000
H    -2.797000000     5.103000000     0.356000000
H    -4.077000000     5.889000000     0.540000000
O    -4.643000000     1.819000000    -5.840000000
H    -4.633000000     1.350000000    -6.674000000
H    -3.770000000     2.206000000    -5.772000000
O     2.195000000    -2.744000000    -1.384000000
H     1.428000000    -2.754000000    -1.957000000
H     2.012000000    -3.415000000    -0.727000000
O    -1.390000000     3.719000000     4.764000000
H    -1.072000000     4.499000000     4.309000000
H    -1.312000000     3.017000000     4.119000000
O    -1.463000000     2.245000000     7.379000000
H    -0.912000000     2.541000000     6.654000000
H    -1.223000000     2.815000000     8.110000000
O    -2.695000000     2.140000000    -3.338000000
H    -2.232000000     1.316000000    -3.190000000
H    -3.480000000     1.890000000    -3.826000000
O     1.264000000    -6.924000000    -2.629000000
H     1.541000000    -7.505000000    -1.920000000
H     1.233000000    -6.055000000    -2.228000000
O     1.547000000     5.246000000     2.651000000
H     2.361000000     5.684000000     2.402000000
H     0.982000000     5.338000000     1.884000000
O     1.084000000     2.581000000    -6.753000000
H     1.061000000     1.640000000    -6.576000000
H     1.041000000     2.988000000    -5.887000000
O    -2.697000000    -0.970000000    -5.741000000
H    -3.538000000    -1.195000000    -5.344000000
H    -2.152000000    -0.690000000    -5.006000000
O    -1.909000000    -3.710000000     1.987000000
H    -1.101000000    -3.354000000     1.618000000
H    -1.850000000    -3.519000000     2.923000000
O     4.459000000     1.207000000     3.509000000
H     5.191000000     1.644000000     3.074000000
H     3.743000000     1.841000000     3.467000000
O     0.878000000     1.713000000     4.567000000
H     1.487000000     1.959000000     3.871000000
H     1.037000000     2.352000000     5.262000000
O     2.554000000     2.889000000     2.619000000
H     2.084000000     3.711000000     2.755000000
H     2.641000000     2.817000000     1.669000000
O     0.302000000    -4.999000000    -0.570000000
H    -0.449000000    -5.583000000    -0.679000000
H     0.292000000    -4.447000000    -1.352000000
O     1.339000000     4.496000000     5.490000000
H     0.679000000     4.960000000     6.005000000
H     1.375000000     4.973000000     4.661000000
O    -4.228000000     2.674000000    -0.173000000
H    -3.550000000     3.230000000    -0.556000000
H    -3.750000000     2.066000000     0.391000000
O    -5.537000000    -0.925000000    -0.945000000
H    -4.852000000    -1.142000000    -0.312000000
H    -6.113000000    -1.690000000    -0.946000000
O    -3.345000000    -1.410000000     0.796000000
H    -3.074000000    -1.865000000     1.594000000
H    -3.291000000    -0.481000000     1.021000000
O     0.162000000    -3.456000000    -2.966000000
H     0.426000000    -2.981000000    -3.754000000
H    -0.725000000    -3.144000000    -2.784000000
O    -2.909000000    -6.236000000     1.002000000
H    -2.705000000    -5.404000000     1.429000000
H    -2.528000000    -6.156000000     0.127000000
O    -2.833000000    -0.071000000    -8.233000000
H    -2.964000000    -0.321000000    -7.318000000
H    -3.700000000    -0.156000000    -8.631000000
O     0.206000000     3.063000000    -4.150000000
H    -0.548000000     3.579000000    -4.436000000
H    -0.151000000     2.192000000    -3.979000000
O     2.102000000    -3.967000000     1.279000000
H     1.637000000    -4.071000000     2.109000000
H     1.501000000    -4.318000000     0.622000000
O     6.323000000     2.389000000     1.733000000
H     7.220000000     2.309000000     1.408000000
H     6.239000000     3.310000000     1.980000000
O     3.499000000     3.223000000    -0.047000000
H     3.346000000     3.236000000    -0.991000000
H     4.295000000     3.741000000     0.074000000
