158
-3044.53779
C    -0.651000000    -1.312000000    -0.304000000
H    -1.041000000    -2.313000000    -0.471000000
C     0.263000000    -1.093000000     0.738000000
H     0.397000000    -1.826000000     1.529000000
C     0.795000000     0.145000000     0.950000000
H     1.431000000     0.349000000     1.798000000
C     0.472000000     1.178000000     0.104000000
H     0.870000000     2.190000000     0.135000000
C    -0.399000000     0.988000000    -0.956000000
H    -0.688000000     1.853000000    -1.548000000
C    -0.983000000    -0.285000000    -1.208000000
C    -2.055000000    -0.341000000    -2.270000000
O    -2.513000000    -1.438000000    -2.521000000
O    -2.544000000     0.667000000    -2.709000000
O     1.020000000     5.315000000    -1.712000000
H     0.818000000     6.227000000    -1.920000000
H     1.171000000     5.313000000    -0.766000000
O     1.560000000     2.980000000    -2.937000000
H     1.445000000     3.739000000    -2.364000000
H     0.852000000     3.054000000    -3.577000000
O     1.253000000     4.032000000     1.613000000
H     0.710000000     3.675000000     2.315000000
H     0.706000000     4.703000000     1.204000000
O    -0.073000000     2.804000000     3.552000000
H    -0.334000000     2.836000000     4.472000000
H    -0.757000000     2.288000000     3.126000000
O     6.954000000     0.921000000    -1.453000000
H     6.179000000     0.432000000    -1.179000000
H     6.775000000     1.163000000    -2.362000000
O    -0.216000000     2.831000000    -4.997000000
H    -1.013000000     2.357000000    -4.760000000
H     0.373000000     2.156000000    -5.334000000
O    -3.360000000    -2.518000000    -4.817000000
H    -3.548000000    -1.958000000    -4.064000000
H    -2.404000000    -2.556000000    -4.853000000
O    -2.590000000    -3.485000000     1.886000000
H    -2.242000000    -4.079000000     1.222000000
H    -1.832000000    -2.972000000     2.169000000
O    -1.600000000    -0.016000000    -5.546000000
H    -1.180000000    -0.855000000    -5.357000000
H    -2.168000000     0.142000000    -4.792000000
O    -4.560000000    -1.927000000    -0.898000000
H    -5.333000000    -1.831000000    -1.454000000
H    -3.825000000    -1.951000000    -1.511000000
O    -1.124000000     2.869000000     6.050000000
H    -1.951000000     2.421000000     6.229000000
H    -1.362000000     3.793000000     5.983000000
O     1.275000000    -2.507000000    -2.525000000
H     1.642000000    -1.628000000    -2.437000000
H     1.136000000    -2.800000000    -1.624000000
O    -4.770000000     0.277000000    -4.127000000
H    -4.006000000     0.102000000    -3.578000000
H    -5.518000000     0.039000000    -3.579000000
O    -3.611000000    -0.973000000     1.396000000
H    -4.057000000    -1.108000000     0.561000000
H    -3.343000000    -1.850000000     1.670000000
O    -4.757000000    -0.359000000    -6.724000000
H    -4.685000000    -0.395000000    -5.770000000
H    -4.154000000     0.337000000    -6.984000000
O     0.978000000    -0.462000000     7.837000000
H     1.552000000    -0.638000000     7.091000000
H     1.078000000     0.477000000     7.998000000
O    -3.465000000     3.068000000    -3.221000000
H    -3.147000000     2.219000000    -2.914000000
H    -3.055000000     3.703000000    -2.635000000
O    -3.996000000     3.375000000    -5.830000000
H    -3.926000000     3.082000000    -4.921000000
H    -3.710000000     4.288000000    -5.811000000
O     4.170000000     3.307000000    -3.042000000
H     4.219000000     3.869000000    -2.269000000
H     3.252000000     3.043000000    -3.088000000
O     0.176000000     5.357000000     5.024000000
H    -0.111000000     4.899000000     4.234000000
H     0.803000000     4.760000000     5.432000000
O    -7.013000000    -1.190000000    -2.890000000
H    -7.730000000    -1.214000000    -2.256000000
H    -7.436000000    -1.343000000    -3.735000000
O    -5.993000000    -4.889000000    -2.500000000
H    -5.258000000    -5.390000000    -2.147000000
H    -6.080000000    -4.142000000    -1.908000000
O     4.302000000     4.333000000    -0.554000000
H     4.286000000     4.662000000     0.345000000
H     4.229000000     3.383000000    -0.462000000
O     4.995000000    -1.562000000    -2.542000000
H     4.124000000    -1.171000000    -2.474000000
H     4.973000000    -2.057000000    -3.361000000
O    -0.425000000     5.892000000     0.833000000
H    -0.740000000     6.194000000     1.685000000
H    -0.336000000     6.691000000     0.313000000
O     2.702000000     1.788000000     4.379000000
H     2.932000000     2.615000000     4.803000000
H     1.809000000     1.922000000     4.061000000
O    -7.317000000     2.711000000    -2.452000000
H    -6.565000000     2.540000000    -3.019000000
H    -7.705000000     1.849000000    -2.302000000
O    -3.342000000     3.453000000     1.282000000
H    -4.215000000     3.065000000     1.341000000
H    -2.747000000     2.740000000     1.510000000
O    -1.177000000    -3.937000000    -2.148000000
H    -1.190000000    -4.531000000    -2.898000000
H    -1.726000000    -3.200000000    -2.415000000
O     2.434000000    -3.144000000     3.716000000
H     1.563000000    -3.541000000     3.718000000
H     3.025000000    -3.861000000     3.946000000
O     2.322000000    -3.168000000     0.302000000
H     2.363000000    -3.396000000     1.230000000
H     2.828000000    -3.853000000    -0.136000000
O     0.510000000    -5.234000000     2.286000000
H     0.135000000    -5.478000000     1.440000000
H     1.255000000    -5.823000000     2.397000000
O     2.470000000    -0.095000000    -2.395000000
H     2.254000000     0.478000000    -3.131000000
H     2.119000000     0.357000000    -1.628000000
O    -5.168000000    -3.378000000     2.954000000
H    -5.043000000    -3.616000000     3.873000000
H    -4.299000000    -3.468000000     2.563000000
O    -1.972000000     1.033000000     1.891000000
H    -2.737000000     0.479000000     1.738000000
H    -1.243000000     0.546000000     1.506000000
O    -4.602000000    -4.812000000    -4.848000000
H    -4.129000000    -3.982000000    -4.899000000
H    -5.353000000    -4.626000000    -4.284000000
O    -2.743000000     1.486000000    -7.628000000
H    -2.805000000     2.278000000    -7.093000000
H    -2.232000000     0.877000000    -7.095000000
O    -1.320000000    -4.766000000     4.314000000
H    -1.449000000    -3.823000000     4.415000000
H    -0.618000000    -4.844000000     3.668000000
O    -1.279000000    -5.335000000     0.018000000
H    -1.225000000    -4.827000000    -0.792000000
H    -0.874000000    -6.175000000    -0.198000000
O     6.157000000    -0.147000000     4.922000000
H     7.018000000    -0.049000000     5.329000000
H     5.831000000     0.749000000     4.834000000
O    -0.085000000    -2.251000000    -5.066000000
H     0.571000000    -2.465000000    -5.729000000
H     0.410000000    -2.195000000    -4.248000000
O     6.149000000    -2.367000000     3.046000000
H     6.108000000    -1.656000000     3.686000000
H     6.750000000    -2.050000000     2.373000000
O    -2.394000000     4.567000000    -1.078000000
H    -1.508000000     4.527000000    -0.719000000
H    -2.929000000     4.082000000    -0.449000000
O     3.654000000    -0.752000000     1.229000000
H     3.617000000    -1.159000000     2.095000000
H     3.061000000    -1.278000000     0.692000000
O     3.456000000     5.640000000     2.065000000
H     2.590000000     5.234000000     2.016000000
H     3.278000000     6.555000000     2.281000000
O    -1.766000000    -2.020000000     3.970000000
H    -2.171000000    -1.627000000     4.743000000
H    -1.073000000    -1.406000000     3.725000000
O     3.951000000     1.612000000    -0.050000000
H     4.328000000     0.853000000     0.395000000
H     3.036000000     1.624000000     0.230000000
O     2.530000000    -1.025000000     5.686000000
H     2.183000000    -1.465000000     4.910000000
H     2.951000000    -0.236000000     5.345000000
