158
-3041.43071
C    -0.143000000    -1.398000000    -0.158000000
H    -0.058000000    -2.463000000    -0.358000000
C     0.844000000    -0.778000000     0.524000000
H     1.440000000    -1.456000000     1.129000000
C     0.896000000     0.614000000     0.633000000
H     1.705000000     1.090000000     1.280000000
C    -0.122000000     1.362000000    -0.007000000
H    -0.055000000     2.443000000     0.089000000
C    -1.114000000     0.703000000    -0.711000000
H    -1.890000000     1.197000000    -1.290000000
C    -1.172000000    -0.704000000    -0.767000000
C    -2.225000000    -1.418000000    -1.604000000
O    -2.184000000    -2.659000000    -1.662000000
O    -3.150000000    -0.910000000    -2.114000000
O    -2.289000000     4.147000000    -1.043000000
H    -2.668000000     3.725000000    -1.815000000
H    -1.358000000     4.229000000    -1.248000000
O    -4.322000000     2.154000000    -5.906000000
H    -3.663000000     1.594000000    -5.495000000
H    -4.264000000     2.982000000    -5.429000000
O     5.565000000    -1.281000000     2.053000000
H     5.057000000    -0.471000000     2.019000000
H     6.176000000    -1.151000000     2.778000000
O    -2.125000000     0.447000000    -4.237000000
H    -2.429000000    -0.112000000    -4.952000000
H    -2.324000000    -0.049000000    -3.443000000
O    -5.387000000    -4.342000000    -4.712000000
H    -6.341000000    -4.286000000    -4.766000000
H    -5.189000000    -4.172000000    -3.791000000
O     0.103000000     4.657000000     2.372000000
H    -0.341000000     3.819000000     2.498000000
H    -0.264000000     5.002000000     1.557000000
O     2.767000000     0.386000000    -1.494000000
H     2.583000000    -0.454000000    -1.914000000
H     2.121000000     0.448000000    -0.790000000
O    -5.309000000    -1.529000000    -0.344000000
H    -5.074000000    -1.476000000     0.582000000
H    -4.556000000    -1.158000000    -0.803000000
O     3.315000000     1.168000000    -4.096000000
H     2.523000000     0.642000000    -4.202000000
H     3.140000000     1.714000000    -3.330000000
O    -2.415000000    -4.103000000     0.566000000
H    -2.345000000    -3.735000000    -0.316000000
H    -2.032000000    -3.435000000     1.135000000
O     4.943000000    -4.070000000     1.930000000
H     5.188000000    -3.157000000     1.780000000
H     4.034000000    -4.125000000     1.635000000
O     1.888000000    -1.816000000    -2.899000000
H     1.930000000    -2.414000000    -2.153000000
H     2.524000000    -2.165000000    -3.522000000
O    -7.665000000    -1.621000000    -2.515000000
H    -7.505000000    -1.577000000    -1.573000000
H    -8.225000000    -2.389000000    -2.628000000
O    -6.766000000     2.596000000    -3.982000000
H    -7.072000000     2.685000000    -3.080000000
H    -6.016000000     2.005000000    -3.924000000
O     1.043000000    -4.622000000    -3.914000000
H     1.990000000    -4.533000000    -4.018000000
H     0.677000000    -3.892000000    -4.413000000
O    -4.606000000    -3.425000000    -2.339000000
H    -5.265000000    -3.118000000    -1.716000000
H    -3.788000000    -3.033000000    -2.034000000
O     0.249000000     4.778000000    -1.385000000
H     0.961000000     4.706000000    -2.020000000
H     0.424000000     5.596000000    -0.920000000
O    -0.246000000     0.161000000     3.415000000
H     0.207000000     0.498000000     4.188000000
H     0.275000000     0.476000000     2.676000000
O     0.803000000     0.143000000    -4.282000000
H    -0.140000000     0.304000000    -4.315000000
H     0.893000000    -0.651000000    -3.755000000
O     1.984000000    -2.421000000     6.271000000
H     1.247000000    -1.876000000     6.547000000
H     2.557000000    -1.824000000     5.790000000
O    -2.191000000     3.255000000     1.683000000
H    -2.409000000     3.493000000     0.782000000
H    -2.613000000     2.406000000     1.815000000
O    -5.388000000     0.031000000    -3.250000000
H    -4.530000000    -0.296000000    -2.980000000
H    -6.011000000    -0.593000000    -2.877000000
O     2.816000000    -3.477000000    -0.682000000
H     2.365000000    -3.573000000     0.157000000
H     2.826000000    -4.360000000    -1.051000000
O    -4.713000000     1.657000000    -0.768000000
H    -4.671000000     1.983000000     0.131000000
H    -5.595000000     1.294000000    -0.850000000
O     1.882000000     4.029000000     4.333000000
H     2.694000000     4.450000000     4.052000000
H     1.245000000     4.263000000     3.658000000
O     0.456000000     3.252000000    -4.473000000
H     1.071000000     3.702000000    -3.893000000
H     0.300000000     2.408000000    -4.048000000
O    -4.208000000    -6.332000000    -1.503000000
H    -5.108000000    -6.010000000    -1.454000000
H    -3.671000000    -5.540000000    -1.521000000
O    -2.763000000    -3.023000000    -4.973000000
H    -3.440000000    -3.660000000    -5.199000000
H    -2.601000000    -3.167000000    -4.040000000
O     5.233000000     1.423000000    -1.072000000
H     5.212000000     2.360000000    -1.267000000
H     4.387000000     1.095000000    -1.377000000
O     4.038000000    -0.419000000     5.459000000
H     4.856000000    -0.392000000     4.963000000
H     3.548000000     0.345000000     5.155000000
O     4.681000000     4.664000000     4.137000000
H     4.877000000     5.565000000     4.397000000
H     5.460000000     4.377000000     3.662000000
O     5.390000000     4.071000000    -1.611000000
H     4.838000000     4.831000000    -1.426000000
H     6.238000000     4.444000000    -1.852000000
O     0.897000000     0.323000000     6.340000000
H     1.707000000     0.608000000     5.917000000
H     0.274000000     1.027000000     6.164000000
O     2.548000000     1.385000000     4.133000000
H     2.265000000     2.258000000     4.404000000
H     3.194000000     1.545000000     3.445000000
O     5.098000000    -1.891000000    -0.677000000
H     4.215000000    -2.205000000    -0.871000000
H     5.018000000    -1.468000000     0.178000000
O     0.326000000    -6.093000000     0.726000000
H    -0.254000000    -6.335000000     0.005000000
H     0.421000000    -6.897000000     1.237000000
O    -3.094000000     0.838000000     2.788000000
H    -3.154000000    -0.055000000     2.449000000
H    -2.163000000     0.961000000     2.974000000
O    -4.514000000    -2.168000000     2.058000000
H    -5.008000000    -2.600000000     2.754000000
H    -3.676000000    -2.630000000     2.037000000
O    -1.728000000    -2.133000000     2.578000000
H    -1.540000000    -2.739000000     3.294000000
H    -1.080000000    -1.435000000     2.678000000
O    -1.160000000    -5.285000000    -2.479000000
H    -0.371000000    -5.020000000    -2.951000000
H    -1.525000000    -4.465000000    -2.145000000
O     7.846000000     0.869000000    -0.427000000
H     8.076000000    -0.057000000    -0.352000000
H     6.913000000     0.868000000    -0.638000000
O    -2.436000000    -6.104000000     2.433000000
H    -2.071000000    -5.555000000     3.127000000
H    -2.345000000    -5.579000000     1.638000000
O     5.969000000     3.998000000     1.942000000
H     5.476000000     4.748000000     1.609000000
H     6.833000000     4.082000000     1.539000000
O    -3.809000000    -0.700000000    -6.052000000
H    -3.522000000    -1.479000000    -5.576000000
H    -4.594000000    -0.411000000    -5.587000000
O    -3.366000000     2.705000000    -2.965000000
H    -3.965000000     2.097000000    -2.531000000
H    -2.977000000     2.192000000    -3.674000000
O     1.859000000    -4.112000000     1.956000000
H     1.720000000    -4.224000000     2.896000000
H     1.295000000    -4.770000000     1.550000000
O     2.549000000     4.088000000    -2.932000000
H     2.992000000     4.222000000    -2.094000000
H     3.114000000     4.520000000    -3.573000000
O     4.453000000     1.267000000     1.853000000
H     4.375000000     1.288000000     0.899000000
H     5.032000000     2.001000000     2.061000000
