158
-3013.03893
C    -0.707000000    -1.344000000    -0.130000000
H    -1.065000000    -2.365000000    -0.232000000
C     0.491000000    -1.063000000     0.600000000
H     0.974000000    -1.893000000     1.109000000
C     1.008000000     0.234000000     0.722000000
H     1.915000000     0.431000000     1.267000000
C     0.307000000     1.285000000     0.129000000
H     0.769000000     2.264000000     0.227000000
C    -0.926000000     1.068000000    -0.517000000
H    -1.468000000     1.904000000    -0.950000000
C    -1.346000000    -0.223000000    -0.695000000
C    -2.597000000    -0.535000000    -1.510000000
O    -2.759000000    -1.578000000    -2.092000000
O    -3.257000000     0.423000000    -1.817000000
O    -0.934000000     6.261000000    -1.069000000
H    -0.481000000     6.474000000    -0.254000000
H    -1.656000000     5.692000000    -0.801000000
O    -0.975000000     4.569000000    -3.306000000
H    -0.608000000     4.918000000    -2.494000000
H    -0.622000000     3.681000000    -3.367000000
O    -6.942000000     4.271000000    -2.518000000
H    -7.662000000     3.652000000    -2.638000000
H    -6.176000000     3.718000000    -2.359000000
O    -0.070000000     4.579000000     1.496000000
H    -0.751000000     3.913000000     1.594000000
H    -0.395000000     5.329000000     1.993000000
O    -2.943000000     3.420000000     2.225000000
H    -3.328000000     3.418000000     3.101000000
H    -2.543000000     2.555000000     2.137000000
O    -7.733000000    -0.314000000    -1.696000000
H    -8.386000000    -1.013000000    -1.745000000
H    -6.897000000    -0.757000000    -1.838000000
O     7.703000000     1.582000000    -0.701000000
H     6.749000000     1.545000000    -0.768000000
H     7.889000000     1.344000000     0.208000000
O    -1.136000000     1.178000000    -3.828000000
H    -1.789000000     1.134000000    -3.130000000
H    -0.413000000     0.634000000    -3.514000000
O    -3.644000000    -4.263000000    -5.311000000
H    -4.488000000    -4.026000000    -5.695000000
H    -3.372000000    -5.044000000    -5.793000000
O     1.220000000     1.699000000     4.779000000
H     1.664000000     2.069000000     4.017000000
H     0.862000000     2.458000000     5.240000000
O     0.376000000    -1.429000000    -5.971000000
H     0.128000000    -1.574000000    -6.884000000
H    -0.452000000    -1.450000000    -5.492000000
O    -4.362000000     1.046000000     0.660000000
H    -3.862000000     0.659000000    -0.059000000
H    -3.702000000     1.278000000     1.313000000
O    -3.018000000    -6.529000000     1.413000000
H    -3.002000000    -6.533000000     2.370000000
H    -2.136000000    -6.255000000     1.160000000
O    -2.145000000     1.167000000    -6.192000000
H    -1.562000000     0.560000000    -6.648000000
H    -1.697000000     1.355000000    -5.367000000
O    -5.517000000    -1.852000000    -1.863000000
H    -5.740000000    -2.783000000    -1.883000000
H    -4.567000000    -1.832000000    -1.978000000
O     0.233000000    -3.615000000    -3.444000000
H    -0.023000000    -2.918000000    -4.049000000
H    -0.591000000    -3.904000000    -3.051000000
O    -4.408000000    -0.707000000    -4.631000000
H    -3.509000000    -0.905000000    -4.894000000
H    -4.339000000    -0.464000000    -3.707000000
O    -4.331000000    -5.239000000    -0.561000000
H    -5.230000000    -5.006000000    -0.329000000
H    -3.941000000    -5.537000000     0.261000000
O     3.491000000     2.254000000     2.652000000
H     4.016000000     1.819000000     1.980000000
H     2.899000000     2.824000000     2.161000000
O    -7.025000000     1.514000000     0.369000000
H    -7.171000000     0.943000000    -0.385000000
H    -6.183000000     1.229000000     0.725000000
O    -6.974000000    -1.395000000    -5.377000000
H    -6.097000000    -1.396000000    -4.992000000
H    -7.473000000    -2.007000000    -4.835000000
O    -4.861000000     2.898000000    -1.806000000
H    -4.689000000     2.170000000    -1.209000000
H    -4.289000000     2.732000000    -2.556000000
O     3.827000000    -2.110000000     0.400000000
H     3.331000000    -2.704000000    -0.163000000
H     3.241000000    -1.933000000     1.136000000
O    -4.109000000     2.532000000    -4.440000000
H    -4.883000000     2.160000000    -4.864000000
H    -3.381000000     2.000000000    -4.762000000
O     2.655000000     2.560000000    -3.810000000
H     2.820000000     2.588000000    -2.868000000
H     2.098000000     1.791000000    -3.934000000
O     1.934000000     4.934000000     3.918000000
H     2.292000000     5.466000000     3.207000000
H     0.985000000     5.028000000     3.833000000
O     3.461000000     2.717000000    -1.199000000
H     2.984000000     3.181000000    -0.511000000
H     3.848000000     1.963000000    -0.756000000
O    -4.284000000    -2.335000000     0.836000000
H    -4.888000000    -2.961000000     1.236000000
H    -4.852000000    -1.663000000     0.459000000
O     3.801000000    -0.699000000    -2.403000000
H     4.551000000    -1.293000000    -2.387000000
H     4.181000000     0.164000000    -2.565000000
O     6.012000000    -0.213000000     2.638000000
H     6.875000000    -0.384000000     2.260000000
H     6.196000000     0.229000000     3.466000000
O     3.387000000     0.133000000     6.312000000
H     3.127000000     0.481000000     5.459000000
H     4.178000000    -0.376000000     6.132000000
O     5.007000000     3.217000000     4.679000000
H     4.581000000     2.662000000     4.026000000
H     5.308000000     3.980000000     4.184000000
O     4.497000000     5.036000000    -2.129000000
H     4.006000000     4.255000000    -1.871000000
H     4.678000000     4.908000000    -3.060000000
O     6.249000000    -2.925000000     0.225000000
H     5.331000000    -2.676000000     0.329000000
H     6.627000000    -2.227000000    -0.310000000
O    -2.061000000    -4.185000000    -2.155000000
H    -2.829000000    -4.547000000    -1.712000000
H    -2.117000000    -3.242000000    -1.998000000
O     1.449000000    -2.651000000     4.333000000
H     1.387000000    -3.265000000     3.601000000
H     2.166000000    -2.064000000     4.094000000
O     2.385000000    -3.727000000    -1.069000000
H     1.773000000    -3.479000000    -1.761000000
H     1.922000000    -4.398000000    -0.568000000
O     1.142000000    -4.565000000     2.046000000
H     0.471000000    -4.810000000     1.409000000
H     1.959000000    -4.899000000     1.674000000
O     1.248000000     0.046000000    -2.618000000
H     1.146000000     0.204000000    -1.680000000
H     2.114000000    -0.353000000    -2.701000000
O    -1.973000000     0.819000000     2.207000000
H    -1.964000000    -0.067000000     2.569000000
H    -1.214000000     0.847000000     1.624000000
O    -0.090000000    -5.504000000    -0.314000000
H    -0.244000000    -5.858000000    -1.190000000
H    -0.107000000    -6.269000000     0.261000000
O    -1.993000000    -2.055000000    -4.472000000
H    -2.467000000    -2.855000000    -4.698000000
H    -2.229000000    -1.886000000    -3.560000000
O    -3.263000000     4.758000000    -0.093000000
H    -3.973000000     4.277000000    -0.518000000
H    -3.168000000     4.338000000     0.762000000
O     3.631000000    -1.616000000     3.535000000
H     4.419000000    -1.121000000     3.312000000
H     3.943000000    -2.321000000     4.103000000
O     2.488000000     4.112000000     0.766000000
H     1.541000000     4.054000000     0.899000000
H     2.731000000     4.958000000     1.141000000
O    -2.529000000    -1.687000000     3.056000000
H    -3.258000000    -1.834000000     3.659000000
H    -2.796000000    -2.125000000     2.247000000
O     4.977000000     0.907000000     0.399000000
H     5.408000000     0.612000000     1.201000000
H     4.652000000     0.104000000    -0.008000000
O     0.075000000    -0.738000000     5.936000000
H     0.404000000    -1.385000000     5.312000000
H     0.372000000     0.103000000     5.589000000
