158
-3021.33191
C    -1.415000000    -0.201000000     0.099000000
H    -2.472000000    -0.404000000     0.251000000
C    -0.516000000    -0.665000000     1.009000000
H    -0.817000000    -1.288000000     1.846000000
C     0.815000000    -0.444000000     0.788000000
H     1.456000000    -0.920000000     1.368000000
C     1.205000000     0.325000000    -0.306000000
H     2.260000000     0.440000000    -0.542000000
C     0.338000000     0.887000000    -1.122000000
H     0.647000000     1.455000000    -1.996000000
C    -1.027000000     0.636000000    -0.914000000
C    -2.091000000     1.050000000    -1.937000000
O    -3.146000000     0.433000000    -1.966000000
O    -1.948000000     2.044000000    -2.676000000
O     5.918000000    -1.586000000    -2.711000000
H     5.947000000    -0.757000000    -2.233000000
H     6.666000000    -2.081000000    -2.377000000
O     0.767000000    -4.676000000     3.418000000
H     1.079000000    -5.456000000     3.877000000
H     0.496000000    -4.998000000     2.558000000
O    -4.455000000     2.233000000     2.903000000
H    -5.404000000     2.304000000     3.010000000
H    -4.189000000     1.579000000     3.549000000
O     4.216000000    -2.108000000     5.353000000
H     4.111000000    -2.746000000     6.058000000
H     4.028000000    -2.601000000     4.554000000
O    -5.464000000     0.426000000    -0.827000000
H    -4.597000000     0.635000000    -1.173000000
H    -5.313000000    -0.306000000    -0.229000000
O     0.040000000    -0.548000000     4.411000000
H     0.694000000    -0.366000000     5.086000000
H     0.348000000    -0.066000000     3.643000000
O    -7.859000000     0.675000000    -2.070000000
H    -7.990000000    -0.196000000    -2.445000000
H    -7.104000000     0.575000000    -1.491000000
O     3.947000000    -3.560000000    -3.079000000
H     4.496000000    -4.090000000    -3.657000000
H     4.378000000    -2.706000000    -3.055000000
O     3.345000000    -0.453000000    -5.152000000
H     3.192000000    -1.354000000    -5.435000000
H     2.822000000    -0.360000000    -4.356000000
O     1.111000000     2.929000000     1.473000000
H     0.861000000     2.181000000     0.931000000
H     0.280000000     3.300000000     1.768000000
O    -0.560000000    -3.211000000     5.413000000
H    -0.075000000    -3.693000000     4.743000000
H    -0.478000000    -2.293000000     5.154000000
O     2.221000000     3.298000000    -3.456000000
H     2.546000000     3.487000000    -4.336000000
H     2.745000000     2.552000000    -3.162000000
O    -1.500000000     4.546000000    -3.098000000
H    -1.907000000     3.699000000    -2.915000000
H    -1.412000000     4.568000000    -4.051000000
O    -5.549000000     1.768000000    -5.331000000
H    -5.958000000     1.434000000    -6.130000000
H    -4.659000000     1.416000000    -5.353000000
O    -1.162000000     2.619000000    -7.453000000
H    -1.582000000     2.788000000    -8.296000000
H    -1.651000000     3.158000000    -6.830000000
O     5.523000000     2.712000000     0.528000000
H     5.717000000     2.932000000     1.439000000
H     4.973000000     3.432000000     0.220000000
O     7.044000000    -2.411000000     3.617000000
H     6.399000000    -1.722000000     3.770000000
H     7.851000000    -1.941000000     3.407000000
O    -3.255000000    -1.158000000    -6.973000000
H    -3.222000000    -0.398000000    -6.392000000
H    -2.585000000    -1.750000000    -6.631000000
O    -0.664000000    -5.423000000    -0.987000000
H    -0.502000000    -5.602000000    -0.061000000
H    -0.558000000    -4.475000000    -1.070000000
O     6.477000000    -2.071000000     0.792000000
H     6.493000000    -2.631000000     1.568000000
H     5.589000000    -1.714000000     0.773000000
O    -5.263000000    -3.473000000    -2.754000000
H    -5.667000000    -3.949000000    -3.479000000
H    -4.458000000    -3.111000000    -3.124000000
O    -2.894000000    -3.492000000     0.290000000
H    -3.781000000    -3.846000000     0.228000000
H    -2.434000000    -4.097000000     0.871000000
O    -3.977000000     6.524000000    -1.951000000
H    -3.067000000     6.245000000    -2.056000000
H    -4.288000000     6.666000000    -2.846000000
O     0.791000000     2.878000000     4.943000000
H     1.441000000     2.470000000     4.371000000
H     0.225000000     3.372000000     4.349000000
O     5.566000000     0.288000000     4.945000000
H     5.164000000    -0.461000000     5.386000000
H     5.322000000     1.041000000     5.483000000
O    -4.511000000     4.336000000    -4.241000000
H    -5.217000000     3.786000000    -4.582000000
H    -4.463000000     4.114000000    -3.311000000
O    -2.769000000    -0.578000000     3.888000000
H    -3.037000000    -0.654000000     4.804000000
H    -1.813000000    -0.609000000     3.914000000
O    -3.067000000     3.349000000     0.740000000
H    -3.618000000     2.873000000     1.361000000
H    -3.442000000     3.147000000    -0.117000000
O     3.174000000     2.299000000     3.590000000
H     3.342000000     1.483000000     4.062000000
H     3.382000000     2.095000000     2.678000000
O    -0.200000000     1.246000000    -4.476000000
H    -0.842000000     1.465000000    -3.800000000
H     0.301000000     2.052000000    -4.599000000
O     6.360000000     0.746000000    -1.193000000
H     6.396000000     1.437000000    -0.532000000
H     7.114000000     0.915000000    -1.758000000
O    -2.527000000     4.878000000    -6.051000000
H    -3.238000000     4.794000000    -5.414000000
H    -2.818000000     5.570000000    -6.644000000
O     4.312000000    -5.527000000     0.549000000
H     4.831000000    -5.425000000    -0.249000000
H     3.407000000    -5.406000000     0.262000000
O     3.476000000     4.177000000    -0.283000000
H     3.458000000     5.131000000    -0.208000000
H     2.846000000     3.874000000     0.371000000
O     0.371000000    -2.778000000    -1.188000000
H     0.135000000    -2.107000000    -0.547000000
H    -0.043000000    -2.488000000    -2.001000000
O    -6.178000000    -2.120000000     1.225000000
H    -6.810000000    -2.093000000     0.506000000
H    -5.339000000    -1.913000000     0.813000000
O     4.900000000     1.716000000    -4.445000000
H     4.832000000     0.856000000    -4.859000000
H     4.608000000     1.573000000    -3.545000000
O    -2.678000000    -4.908000000     2.868000000
H    -2.795000000    -4.747000000     3.804000000
H    -3.562000000    -4.858000000     2.504000000
O     0.518000000     4.515000000    -1.517000000
H    -0.238000000     4.413000000    -2.095000000
H     1.234000000     4.078000000    -1.980000000
O     2.565000000    -4.343000000    -0.894000000
H     1.907000000    -3.660000000    -0.766000000
H     3.007000000    -4.100000000    -1.707000000
O    -0.561000000    -2.558000000    -3.823000000
H    -1.365000000    -2.434000000    -3.320000000
H    -0.856000000    -2.911000000    -4.663000000
O     3.187000000    -3.414000000     2.976000000
H     3.506000000    -3.957000000     2.255000000
H     2.427000000    -3.889000000     3.314000000
O    -4.728000000     3.324000000    -1.812000000
H    -4.738000000     2.375000000    -1.938000000
H    -5.338000000     3.476000000    -1.090000000
O    -2.742000000    -2.087000000    -2.234000000
H    -2.942000000    -1.152000000    -2.192000000
H    -2.690000000    -2.362000000    -1.319000000
O    -5.487000000    -1.682000000     4.019000000
H    -4.634000000    -1.260000000     3.912000000
H    -5.798000000    -1.824000000     3.125000000
O    -3.039000000     0.928000000    -5.031000000
H    -3.059000000     1.189000000    -4.110000000
H    -2.108000000     0.914000000    -5.255000000
O     3.891000000     1.640000000    -1.957000000
H     3.844000000     2.414000000    -1.395000000
H     4.705000000     1.207000000    -1.700000000
O     2.623000000     0.151000000     5.106000000
H     2.734000000     0.452000000     6.008000000
H     2.911000000    -0.762000000     5.122000000
