158
-3052.28652
C    -0.875000000    -0.868000000    -0.929000000
H    -1.605000000    -1.561000000    -1.338000000
C    -0.070000000    -1.293000000     0.215000000
H    -0.110000000    -2.282000000     0.663000000
C     0.715000000    -0.382000000     0.973000000
H     1.329000000    -0.765000000     1.793000000
C     0.796000000     0.936000000     0.524000000
H     1.479000000     1.547000000     1.108000000
C     0.006000000     1.312000000    -0.598000000
H     0.024000000     2.371000000    -0.845000000
C    -0.946000000     0.474000000    -1.262000000
C    -1.749000000     0.901000000    -2.457000000
O    -2.797000000     0.417000000    -2.606000000
O    -1.458000000     1.904000000    -3.149000000
O    -5.573000000     3.938000000    -1.661000000
H    -4.649000000     3.858000000    -1.425000000
H    -6.005000000     4.211000000    -0.852000000
O    -0.328000000     3.215000000     4.495000000
H    -0.726000000     4.024000000     4.815000000
H    -0.857000000     2.971000000     3.736000000
O     5.235000000    -3.171000000     1.527000000
H     4.834000000    -2.485000000     0.993000000
H     5.161000000    -3.963000000     0.994000000
O    -7.279000000    -0.655000000    -1.721000000
H    -7.934000000    -1.127000000    -1.206000000
H    -7.471000000     0.269000000    -1.564000000
O     4.134000000     1.686000000     1.927000000
H     4.636000000     1.524000000     2.726000000
H     3.521000000     2.381000000     2.166000000
O     3.390000000    -2.969000000    -1.438000000
H     3.458000000    -2.223000000    -0.843000000
H     2.830000000    -2.658000000    -2.149000000
O     1.530000000     0.062000000    -7.070000000
H     1.373000000     0.546000000    -6.259000000
H     2.160000000     0.599000000    -7.550000000
O    -0.889000000    -1.541000000     3.275000000
H    -0.362000000    -2.331000000     3.398000000
H    -0.584000000    -1.176000000     2.444000000
O    -4.795000000     1.184000000    -4.366000000
H    -3.974000000     1.182000000    -3.873000000
H    -5.476000000     1.123000000    -3.697000000
O    -6.570000000    -2.060000000    -3.996000000
H    -6.801000000    -1.453000000    -3.293000000
H    -6.575000000    -1.523000000    -4.788000000
O     1.190000000     2.091000000    -5.049000000
H     0.645000000     1.695000000    -4.369000000
H     0.565000000     2.503000000    -5.646000000
O     1.145000000    -0.864000000     6.252000000
H     0.254000000    -0.514000000     6.246000000
H     1.132000000    -1.563000000     5.598000000
O    -3.581000000    -2.659000000    -7.176000000
H    -3.333000000    -2.099000000    -6.440000000
H    -4.303000000    -2.194000000    -7.599000000
O     1.155000000    -5.107000000     1.278000000
H     0.347000000    -4.653000000     1.040000000
H     1.409000000    -5.577000000     0.484000000
O     4.520000000    -3.791000000     4.566000000
H     4.600000000    -3.406000000     3.694000000
H     4.432000000    -4.731000000     4.406000000
O     1.197000000     5.768000000     1.829000000
H     0.449000000     5.304000000     1.452000000
H     1.612000000     6.199000000     1.082000000
O    -1.294000000     3.885000000     1.519000000
H    -2.240000000     3.957000000     1.650000000
H    -1.098000000     2.965000000     1.699000000
O    -0.756000000    -6.156000000    -0.996000000
H    -1.269000000    -5.930000000    -1.773000000
H    -0.948000000    -5.457000000    -0.371000000
O    -1.775000000    -4.145000000     0.523000000
H    -1.952000000    -4.515000000     1.388000000
H    -2.626000000    -3.832000000     0.218000000
O    -0.800000000     2.647000000    -6.892000000
H    -1.217000000     1.819000000    -7.128000000
H    -0.306000000     2.898000000    -7.672000000
O    -7.217000000     2.174000000    -3.257000000
H    -6.766000000     2.905000000    -2.833000000
H    -7.608000000     2.557000000    -4.042000000
O    -1.723000000     1.476000000     2.895000000
H    -2.504000000     1.088000000     2.500000000
H    -1.267000000     0.738000000     3.299000000
O     2.040000000     1.658000000     5.745000000
H     1.215000000     2.113000000     5.573000000
H     1.776000000     0.800000000     6.076000000
O     4.475000000     0.986000000     4.556000000
H     3.853000000     1.333000000     5.196000000
H     4.835000000     0.203000000     4.972000000
O    -2.131000000    -0.073000000    -5.592000000
H    -2.128000000    -0.124000000    -4.636000000
H    -2.897000000     0.462000000    -5.801000000
O     4.215000000    -0.694000000     0.490000000
H     4.115000000     0.066000000     1.063000000
H     4.162000000    -0.335000000    -0.396000000
O    -4.650000000     3.814000000    -5.431000000
H    -4.526000000     3.053000000    -4.864000000
H    -5.282000000     4.361000000    -4.964000000
O     4.698000000    -5.119000000    -0.183000000
H     4.532000000    -5.939000000    -0.647000000
H     4.190000000    -4.464000000    -0.663000000
O     2.549000000     3.615000000     3.101000000
H     2.305000000     4.385000000     2.588000000
H     1.764000000     3.404000000     3.605000000
O    -0.439000000     6.177000000    -1.124000000
H     0.393000000     6.503000000    -0.782000000
H    -0.195000000     5.449000000    -1.695000000
O    -1.589000000     0.261000000     6.267000000
H    -2.484000000    -0.051000000     6.138000000
H    -1.685000000     1.198000000     6.441000000
O     0.458000000    -0.763000000    -4.789000000
H     0.860000000    -1.315000000    -5.459000000
H    -0.331000000    -0.417000000    -5.205000000
O    -4.362000000    -2.758000000     0.737000000
H    -4.736000000    -3.352000000     0.086000000
H    -4.530000000    -1.883000000     0.386000000
O    -1.874000000     5.144000000    -4.938000000
H    -1.883000000     4.233000000    -5.232000000
H    -1.402000000     5.123000000    -4.106000000
O     0.024000000     4.054000000    -2.933000000
H    -0.494000000     3.254000000    -3.020000000
H     0.928000000     3.770000000    -3.072000000
O     3.573000000     4.684000000    -0.875000000
H     4.493000000     4.775000000    -1.123000000
H     3.228000000     4.022000000    -1.474000000
O     1.996000000     6.858000000    -0.534000000
H     2.484000000     7.682000000    -0.529000000
H     2.665000000     6.182000000    -0.431000000
O     2.669000000     2.026000000    -2.276000000
H     3.505000000     2.072000000    -2.740000000
H     2.245000000     1.241000000    -2.621000000
O    -2.489000000    -4.934000000    -2.740000000
H    -2.889000000    -4.214000000    -3.229000000
H    -1.673000000    -5.116000000    -3.207000000
O    -4.603000000     0.202000000    -0.160000000
H    -4.350000000     0.259000000    -1.082000000
H    -3.966000000     0.750000000     0.297000000
O    -2.259000000    -5.379000000     2.847000000
H    -1.674000000    -5.053000000     3.531000000
H    -2.348000000    -6.313000000     3.034000000
O    -3.979000000    -0.738000000     2.765000000
H    -3.221000000    -1.023000000     3.276000000
H    -3.898000000    -1.209000000     1.935000000
O     6.265000000     2.150000000    -0.317000000
H     6.755000000     2.846000000     0.121000000
H     5.436000000     2.105000000     0.160000000
O    -3.756000000    -2.172000000    -3.570000000
H    -3.577000000    -1.442000000    -2.978000000
H    -4.703000000    -2.139000000    -3.711000000
O     1.789000000    -0.731000000    -2.452000000
H     1.188000000    -0.567000000    -1.725000000
H     1.240000000    -0.675000000    -3.234000000
O    -2.961000000     3.549000000    -0.958000000
H    -2.281000000     4.087000000    -0.553000000
H    -2.492000000     3.010000000    -1.595000000
O     0.678000000    -3.758000000     3.907000000
H     0.418000000    -4.486000000     4.471000000
H     1.192000000    -4.167000000     3.210000000
O    -5.061000000     1.202000000    -7.218000000
H    -4.296000000     1.358000000    -7.772000000
H    -4.844000000     1.623000000    -6.386000000
