158
-3021.60131
C    -0.171000000    -1.037000000     1.039000000
H    -0.372000000    -1.824000000     1.761000000
C    -0.953000000     0.080000000     0.975000000
H    -1.766000000     0.179000000     1.689000000
C    -0.625000000     1.046000000     0.048000000
H    -1.094000000     1.948000000     0.028000000
C     0.402000000     0.855000000    -0.912000000
H     0.575000000     1.585000000    -1.698000000
C     1.097000000    -0.370000000    -0.915000000
H     1.859000000    -0.624000000    -1.648000000
C     0.783000000    -1.343000000     0.063000000
C     1.438000000    -2.690000000    -0.059000000
O     2.215000000    -2.997000000    -0.957000000
O     1.259000000    -3.399000000     0.888000000
O     4.059000000     3.352000000     0.901000000
H     4.160000000     3.289000000    -0.049000000
H     3.349000000     2.743000000     1.107000000
O    -0.349000000     3.844000000     2.233000000
H    -1.123000000     3.885000000     1.672000000
H     0.146000000     4.634000000     2.016000000
O     0.544000000    -3.631000000     3.607000000
H     1.036000000    -2.957000000     4.075000000
H     0.839000000    -3.556000000     2.699000000
O     4.836000000    -7.170000000     0.278000000
H     4.386000000    -6.487000000    -0.219000000
H     4.142000000    -7.779000000     0.531000000
O    -1.864000000    -3.614000000     4.986000000
H    -0.972000000    -3.609000000     4.638000000
H    -1.809000000    -3.104000000     5.794000000
O     0.960000000    -2.969000000    -3.252000000
H     0.197000000    -3.512000000    -3.052000000
H     1.448000000    -2.929000000    -2.430000000
O     3.762000000     3.865000000    -5.127000000
H     2.892000000     3.778000000    -4.737000000
H     4.271000000     4.343000000    -4.473000000
O     1.863000000    -3.326000000    -5.978000000
H     1.182000000    -3.096000000    -6.610000000
H     1.523000000    -3.019000000    -5.137000000
O    -2.430000000     4.586000000     0.868000000
H    -2.084000000     5.190000000     0.210000000
H    -2.906000000     5.146000000     1.481000000
O     5.484000000    -1.835000000     1.455000000
H     5.463000000    -2.200000000     0.571000000
H     6.400000000    -1.908000000     1.723000000
O     1.705000000     2.258000000     1.601000000
H     1.378000000     1.624000000     0.963000000
H     0.918000000     2.683000000     1.942000000
O    -2.892000000     2.961000000    -1.268000000
H    -3.442000000     2.239000000    -0.964000000
H    -2.732000000     3.486000000    -0.483000000
O    -3.224000000     6.246000000     2.985000000
H    -2.345000000     6.530000000     2.731000000
H    -3.167000000     6.108000000     3.931000000
O    -0.870000000    -4.904000000     0.665000000
H    -0.254000000    -4.172000000     0.644000000
H    -1.684000000    -4.524000000     0.994000000
O     6.420000000     0.559000000    -1.145000000
H     7.236000000     0.486000000    -0.651000000
H     5.817000000    -0.036000000    -0.701000000
O     3.448000000    -7.853000000    -2.562000000
H     4.041000000    -7.178000000    -2.894000000
H     2.848000000    -7.381000000    -1.985000000
O    -2.786000000    -7.307000000     1.649000000
H    -2.180000000    -6.741000000     1.170000000
H    -2.491000000    -7.259000000     2.558000000
O    -6.838000000     1.393000000    -2.350000000
H    -7.399000000     0.668000000    -2.626000000
H    -6.698000000     1.245000000    -1.415000000
O    -1.111000000     4.027000000     4.950000000
H    -1.066000000     4.012000000     3.994000000
H    -0.561000000     3.295000000     5.228000000
O     4.967000000    -5.944000000    -3.789000000
H     4.532000000    -5.880000000    -4.639000000
H     4.888000000    -5.067000000    -3.413000000
O    -4.570000000     1.435000000     0.216000000
H    -4.633000000     0.483000000     0.141000000
H    -5.478000000     1.739000000     0.179000000
O    -2.487000000    -2.575000000    -0.736000000
H    -2.286000000    -2.540000000     0.199000000
H    -3.051000000    -3.343000000    -0.830000000
O    -5.564000000     2.105000000    -4.826000000
H    -4.698000000     2.328000000    -5.167000000
H    -5.530000000     2.357000000    -3.903000000
O    -4.121000000     4.418000000    -3.336000000
H    -4.908000000     4.564000000    -2.811000000
H    -3.503000000     4.006000000    -2.731000000
O    -0.218000000     3.217000000    -3.889000000
H    -0.353000000     2.864000000    -4.769000000
H    -0.987000000     2.931000000    -3.396000000
O     3.644000000    -6.651000000     3.066000000
H     3.423000000    -5.762000000     2.787000000
H     3.079000000    -7.215000000     2.537000000
O     2.579000000    -5.814000000    -0.534000000
H     2.467000000    -4.874000000    -0.673000000
H     1.811000000    -6.074000000    -0.025000000
O    -2.638000000     1.745000000    -4.802000000
H    -2.316000000     1.184000000    -5.508000000
H    -2.917000000     1.134000000    -4.120000000
O    -0.584000000     7.056000000     2.459000000
H    -0.493000000     7.950000000     2.129000000
H     0.181000000     6.595000000     2.115000000
O     3.475000000    -3.985000000     2.096000000
H     2.722000000    -3.590000000     1.656000000
H     4.233000000    -3.528000000     1.731000000
O     4.473000000    -1.238000000    -4.406000000
H     4.652000000    -0.683000000    -5.165000000
H     5.326000000    -1.354000000    -3.987000000
O     4.015000000    -3.546000000    -2.792000000
H     3.512000000    -3.116000000    -2.100000000
H     4.026000000    -2.912000000    -3.509000000
O     1.399000000     5.426000000    -2.880000000
H     0.877000000     5.758000000    -2.150000000
H     1.137000000     4.509000000    -2.964000000
O    -5.136000000    -0.946000000    -1.175000000
H    -5.893000000    -1.532000000    -1.142000000
H    -4.381000000    -1.532000000    -1.215000000
O    -1.089000000    -4.768000000    -2.283000000
H    -1.271000000    -4.817000000    -1.345000000
H    -1.954000000    -4.743000000    -2.694000000
O     1.183000000    -6.421000000     1.816000000
H     0.815000000    -6.794000000     2.617000000
H     0.456000000    -5.942000000     1.419000000
O    -2.697000000    -3.359000000     2.260000000
H    -3.653000000    -3.396000000     2.290000000
H    -2.429000000    -3.327000000     3.179000000
O    -1.605000000     6.757000000    -0.453000000
H    -1.256000000     7.531000000    -0.011000000
H    -2.173000000     7.109000000    -1.139000000
O     3.330000000     1.117000000    -3.232000000
H     3.075000000     1.435000000    -4.099000000
H     3.488000000     0.181000000    -3.358000000
O     1.772000000     5.894000000     2.114000000
H     2.362000000     6.283000000     1.468000000
H     2.216000000     5.093000000     2.392000000
O     0.916000000    -5.479000000     5.734000000
H     1.452000000    -4.885000000     5.208000000
H     0.094000000    -5.553000000     5.249000000
O     4.564000000     2.881000000    -1.594000000
H     3.996000000     2.580000000    -2.304000000
H     5.080000000     2.110000000    -1.357000000
O     5.966000000    -2.646000000    -1.123000000
H     6.344000000    -2.335000000    -1.946000000
H     5.387000000    -3.363000000    -1.382000000
O    -1.912000000    -1.542000000     6.506000000
H    -2.242000000    -1.336000000     7.380000000
H    -2.401000000    -0.961000000     5.923000000
O    -4.702000000     3.055000000     2.655000000
H    -4.106000000     2.489000000     3.147000000
H    -4.678000000     2.708000000     1.763000000
O    -2.627000000    -0.195000000    -2.515000000
H    -3.418000000    -0.092000000    -1.985000000
H    -2.028000000    -0.691000000    -1.957000000
O    -4.710000000    -0.271000000     5.260000000
H    -5.497000000    -0.195000000     4.722000000
H    -4.738000000     0.494000000     5.835000000
O    -1.541000000    -1.713000000    -4.701000000
H    -0.584000000    -1.719000000    -4.689000000
H    -1.787000000    -1.185000000    -3.941000000
