158
-3025.19514
C    -1.139000000    -0.704000000    -0.560000000
H    -2.049000000    -1.215000000    -0.862000000
C    -0.150000000    -1.329000000     0.191000000
H    -0.267000000    -2.398000000     0.353000000
C     0.882000000    -0.501000000     0.687000000
H     1.666000000    -0.870000000     1.305000000
C     0.932000000     0.892000000     0.407000000
H     1.717000000     1.527000000     0.809000000
C    -0.032000000     1.502000000    -0.396000000
H     0.111000000     2.558000000    -0.609000000
C    -1.020000000     0.647000000    -0.940000000
C    -2.067000000     1.244000000    -1.875000000
O    -2.921000000     0.577000000    -2.441000000
O    -2.125000000     2.461000000    -1.919000000
O     0.617000000     3.113000000     4.906000000
H     0.884000000     3.500000000     4.073000000
H     0.916000000     2.205000000     4.856000000
O     5.101000000    -2.252000000     5.045000000
H     5.119000000    -1.297000000     4.988000000
H     4.272000000    -2.501000000     4.636000000
O    -0.551000000    -5.122000000     4.705000000
H    -0.218000000    -5.888000000     5.171000000
H    -1.257000000    -4.791000000     5.260000000
O     4.586000000     1.207000000     2.359000000
H     4.233000000     1.538000000     3.184000000
H     4.245000000     1.806000000     1.695000000
O     4.949000000    -1.117000000    -2.122000000
H     4.079000000    -1.183000000    -2.515000000
H     4.795000000    -0.725000000    -1.262000000
O    -0.457000000    -5.018000000    -3.729000000
H    -0.923000000    -5.853000000    -3.760000000
H    -0.939000000    -4.497000000    -3.088000000
O    -1.516000000    -0.718000000     4.434000000
H    -1.113000000    -1.574000000     4.290000000
H    -1.702000000    -0.695000000     5.372000000
O    -3.298000000    -2.961000000    -5.542000000
H    -3.143000000    -2.939000000    -4.598000000
H    -3.282000000    -3.892000000    -5.766000000
O    -4.490000000     1.851000000    -4.174000000
H    -4.016000000     1.540000000    -3.402000000
H    -5.405000000     1.634000000    -3.996000000
O    -5.937000000    -0.176000000    -2.467000000
H    -6.542000000    -0.550000000    -1.827000000
H    -6.078000000     0.769000000    -2.406000000
O     1.679000000     0.736000000    -5.277000000
H     2.196000000     1.412000000    -5.714000000
H     0.867000000     1.179000000    -5.029000000
O     0.231000000    -1.522000000     7.096000000
H     0.311000000    -2.311000000     7.631000000
H     0.404000000    -1.819000000     6.203000000
O     2.997000000    -2.725000000     3.399000000
H     2.960000000    -3.667000000     3.561000000
H     3.298000000    -2.649000000     2.493000000
O     1.150000000     5.955000000     3.139000000
H     0.520000000     5.267000000     2.925000000
H     1.906000000     5.768000000     2.583000000
O    -0.383000000     4.019000000     2.260000000
H    -0.828000000     3.176000000     2.346000000
H    -0.494000000     4.256000000     1.340000000
O     0.290000000    -6.024000000     1.629000000
H    -0.620000000    -5.827000000     1.851000000
H     0.272000000    -6.213000000     0.691000000
O    -2.707000000    -4.364000000     0.050000000
H    -2.753000000    -4.062000000     0.957000000
H    -3.296000000    -5.118000000     0.019000000
O    -4.525000000     6.725000000    -2.894000000
H    -5.016000000     6.444000000    -3.665000000
H    -4.314000000     5.912000000    -2.435000000
O    -0.444000000     2.137000000    -5.012000000
H    -0.971000000     2.848000000    -4.647000000
H    -1.074000000     1.438000000    -5.188000000
O    -4.110000000     4.093000000    -2.074000000
H    -4.724000000     3.622000000    -2.638000000
H    -3.416000000     3.460000000    -1.894000000
O    -6.705000000     2.644000000    -2.486000000
H    -6.899000000     2.436000000    -1.572000000
H    -7.487000000     3.097000000    -2.800000000
O    -1.061000000     1.488000000     2.612000000
H    -1.297000000     0.895000000     3.326000000
H    -0.868000000     0.909000000     1.874000000
O     0.936000000     0.514000000     5.312000000
H     0.497000000     0.142000000     4.547000000
H     0.385000000     0.257000000     6.052000000
O     3.648000000     1.507000000     4.787000000
H     2.924000000     0.916000000     4.996000000
H     4.294000000     1.347000000     5.476000000
O    -2.351000000     0.254000000    -5.235000000
H    -2.738000000    -0.552000000    -5.575000000
H    -3.066000000     0.685000000    -4.767000000
O     4.599000000    -1.200000000     1.247000000
H     3.836000000    -0.651000000     1.423000000
H     5.336000000    -0.590000000     1.235000000
O    -1.745000000     4.285000000    -4.024000000
H    -2.401000000     4.392000000    -4.712000000
H    -2.064000000     3.549000000    -3.501000000
O     4.016000000    -5.871000000     1.344000000
H     3.436000000    -5.669000000     2.078000000
H     3.452000000    -5.819000000     0.572000000
O    -0.202000000     6.605000000    -0.219000000
H     0.576000000     6.212000000     0.176000000
H    -0.832000000     5.886000000    -0.273000000
O     0.203000000    -1.878000000    -3.999000000
H    -0.442000000    -2.346000000    -3.470000000
H    -0.263000000    -1.105000000    -4.317000000
O    -4.994000000    -1.519000000    -0.082000000
H    -5.104000000    -1.407000000    -1.027000000
H    -5.115000000    -2.457000000     0.063000000
O     1.176000000     4.219000000    -2.956000000
H     0.320000000     3.790000000    -2.952000000
H     1.725000000     3.663000000    -2.404000000
O     4.074000000     3.029000000     0.487000000
H     3.539000000     3.819000000     0.571000000
H     4.006000000     2.791000000    -0.438000000
O     2.648000000     5.812000000     0.531000000
H     3.568000000     6.075000000     0.498000000
H     2.188000000     6.490000000     0.036000000
O     3.878000000     2.667000000    -2.407000000
H     4.406000000     3.072000000    -3.096000000
H     3.764000000     1.761000000    -2.694000000
O    -1.891000000    -3.348000000    -2.350000000
H    -1.906000000    -3.717000000    -1.467000000
H    -2.710000000    -2.856000000    -2.418000000
O     2.676000000    -5.536000000    -0.921000000
H     1.802000000    -5.926000000    -0.900000000
H     2.845000000    -5.378000000    -1.850000000
O     2.212000000    -5.387000000     3.340000000
H     2.123000000    -5.959000000     4.102000000
H     1.353000000    -5.416000000     2.917000000
O    -3.691000000     4.591000000     1.327000000
H    -4.243000000     3.929000000     1.743000000
H    -3.224000000     5.005000000     2.053000000
O    -5.725000000     0.734000000     1.347000000
H    -5.289000000     0.177000000     0.701000000
H    -6.508000000     0.243000000     1.597000000
O    -2.276000000    -4.133000000     2.629000000
H    -1.860000000    -4.495000000     3.411000000
H    -3.204000000    -4.079000000     2.854000000
O    -4.088000000    -1.421000000     3.112000000
H    -3.431000000    -1.305000000     3.798000000
H    -3.713000000    -0.989000000     2.345000000
O    -3.850000000    -1.767000000    -3.160000000
H    -3.416000000    -0.969000000    -2.860000000
H    -4.741000000    -1.490000000    -3.372000000
O     2.266000000    -0.173000000    -2.227000000
H     1.839000000    -0.257000000    -1.374000000
H     1.653000000    -0.575000000    -2.842000000
O     6.088000000    -3.648000000     1.108000000
H     5.539000000    -4.188000000     0.539000000
H     5.615000000    -2.819000000     1.180000000
O    -1.574000000     4.433000000    -0.204000000
H    -2.391000000     4.384000000     0.291000000
H    -1.751000000     3.945000000    -1.008000000
O     0.447000000    -2.500000000     4.562000000
H     0.179000000    -3.369000000     4.263000000
H     1.308000000    -2.366000000     4.166000000
O    -3.720000000     3.624000000    -5.891000000
H    -3.826000000     3.236000000    -6.759000000
H    -3.815000000     2.889000000    -5.286000000
