158
-3047.15179
C    -0.862000000    -0.909000000    -0.780000000
H    -1.420000000    -1.673000000    -1.315000000
C     0.101000000    -1.301000000     0.164000000
H     0.326000000    -2.326000000     0.447000000
C     0.863000000    -0.332000000     0.819000000
H     1.507000000    -0.592000000     1.702000000
C     0.716000000     0.994000000     0.488000000
H     1.296000000     1.777000000     0.969000000
C    -0.222000000     1.355000000    -0.467000000
H    -0.412000000     2.425000000    -0.496000000
C    -1.007000000     0.419000000    -1.086000000
C    -2.144000000     0.887000000    -2.006000000
O    -2.850000000     0.069000000    -2.580000000
O    -2.320000000     2.088000000    -2.314000000
O     0.706000000     1.277000000     4.423000000
H     0.975000000     1.862000000     3.715000000
H    -0.111000000     0.885000000     4.113000000
O     6.880000000    -2.567000000     3.224000000
H     7.740000000    -2.550000000     2.804000000
H     6.370000000    -1.907000000     2.754000000
O     2.402000000    -5.061000000     4.841000000
H     2.709000000    -5.360000000     5.697000000
H     1.547000000    -4.667000000     5.018000000
O    -4.143000000     0.132000000     1.284000000
H    -4.639000000    -0.643000000     1.549000000
H    -4.398000000     0.281000000     0.374000000
O     5.811000000    -0.394000000     1.747000000
H     6.168000000     0.385000000     1.320000000
H     5.555000000    -0.094000000     2.619000000
O    -6.380000000     0.580000000    -5.535000000
H    -6.575000000     1.291000000    -4.925000000
H    -6.254000000     1.016000000    -6.378000000
O    -0.412000000    -5.051000000    -4.615000000
H     0.178000000    -5.687000000    -4.211000000
H    -1.071000000    -4.875000000    -3.944000000
O    -0.316000000    -2.292000000     3.639000000
H     0.536000000    -2.713000000     3.522000000
H    -0.795000000    -2.878000000     4.224000000
O    -3.612000000    -2.588000000    -4.900000000
H    -4.086000000    -2.269000000    -4.132000000
H    -4.226000000    -3.181000000    -5.332000000
O    -2.689000000     1.428000000    -5.110000000
H    -3.021000000     2.321000000    -5.024000000
H    -2.840000000     1.032000000    -4.252000000
O     1.805000000    -1.611000000     7.069000000
H     1.066000000    -1.012000000     7.174000000
H     1.897000000    -1.715000000     6.122000000
O     3.200000000    -2.396000000     1.451000000
H     2.533000000    -3.065000000     1.298000000
H     3.983000000    -2.734000000     1.016000000
O     1.678000000     4.634000000     0.782000000
H     1.635000000     4.494000000    -0.164000000
H     2.614000000     4.659000000     0.978000000
O    -2.008000000     3.946000000     2.175000000
H    -2.703000000     4.296000000     2.732000000
H    -2.433000000     3.787000000     1.332000000
O     1.944000000    -4.758000000     0.417000000
H     2.367000000    -4.968000000    -0.416000000
H     2.236000000    -5.447000000     1.014000000
O    -0.621000000    -4.926000000    -0.522000000
H    -0.667000000    -5.882000000    -0.538000000
H     0.082000000    -4.730000000     0.098000000
O    -3.283000000     5.134000000    -5.865000000
H    -3.067000000     4.397000000    -6.437000000
H    -3.350000000     4.747000000    -4.992000000
O    -3.818000000     3.695000000    -3.709000000
H    -4.507000000     4.032000000    -3.137000000
H    -3.268000000     3.162000000    -3.134000000
O     1.608000000     5.916000000    -4.067000000
H     1.420000000     5.648000000    -3.168000000
H     2.011000000     6.780000000    -3.981000000
O    -1.645000000     0.310000000     3.442000000
H    -2.210000000     0.508000000     2.695000000
H    -1.118000000    -0.435000000     3.153000000
O     3.011000000     0.870000000     5.791000000
H     3.021000000    -0.084000000     5.867000000
H     2.193000000     1.065000000     5.333000000
O    -0.390000000     6.985000000     1.613000000
H     0.355000000     6.453000000     1.334000000
H    -1.136000000     6.620000000     1.138000000
O     3.128000000    -6.276000000     2.605000000
H     3.008000000    -5.599000000     3.271000000
H     2.934000000    -7.096000000     3.059000000
O     5.054000000     0.856000000     4.124000000
H     4.387000000     0.963000000     4.803000000
H     5.775000000     0.407000000     4.566000000
O    -3.470000000    -0.623000000    -6.698000000
H    -3.491000000    -1.344000000    -6.068000000
H    -3.149000000     0.125000000    -6.195000000
O     3.387000000    -0.040000000    -0.866000000
H     2.432000000    -0.090000000    -0.901000000
H     3.603000000    -0.214000000     0.050000000
O    -0.013000000     3.013000000    -3.860000000
H     0.504000000     2.208000000    -3.820000000
H    -0.916000000     2.725000000    -3.725000000
O     4.864000000    -3.336000000    -0.876000000
H     4.594000000    -4.074000000    -1.423000000
H     4.677000000    -2.563000000    -1.409000000
O     5.371000000     3.430000000     3.211000000
H     6.043000000     4.001000000     3.583000000
H     5.524000000     2.579000000     3.623000000
O    -1.195000000     5.514000000    -0.889000000
H    -0.563000000     4.902000000    -1.266000000
H    -1.939000000     4.966000000    -0.639000000
O    -0.182000000     0.328000000     7.157000000
H    -1.139000000     0.304000000     7.155000000
H     0.043000000     0.952000000     6.467000000
O    -5.530000000     4.276000000    -0.965000000
H    -6.076000000     4.776000000    -1.572000000
H    -5.918000000     4.438000000    -0.105000000
O    -0.740000000     4.065000000     5.511000000
H    -0.255000000     3.885000000     4.706000000
H    -0.814000000     5.019000000     5.538000000
O    -0.565000000    -1.839000000    -3.845000000
H    -0.117000000    -2.685000000    -3.825000000
H    -1.479000000    -2.057000000    -4.026000000
O    -2.899000000    -3.186000000     0.578000000
H    -2.852000000    -2.475000000    -0.061000000
H    -2.257000000    -3.827000000     0.271000000
O     1.267000000     4.311000000    -1.890000000
H     0.908000000     3.765000000    -2.590000000
H     2.110000000     3.909000000    -1.681000000
O     0.475000000     3.770000000     2.997000000
H     0.865000000     4.183000000     2.227000000
H    -0.443000000     3.640000000     2.761000000
O     3.343000000     2.775000000    -1.266000000
H     3.885000000     2.838000000    -2.052000000
H     3.632000000     1.969000000    -0.838000000
O    -2.171000000    -4.326000000    -2.833000000
H    -1.830000000    -4.427000000    -1.945000000
H    -2.792000000    -3.600000000    -2.771000000
O     2.971000000    -2.706000000    -3.810000000
H     3.010000000    -3.345000000    -3.099000000
H     2.487000000    -3.150000000    -4.506000000
O    -5.229000000     0.746000000    -1.366000000
H    -6.021000000     1.190000000    -1.670000000
H    -4.576000000     0.934000000    -2.040000000
O    -2.976000000    -2.268000000     3.128000000
H    -2.078000000    -2.065000000     3.390000000
H    -2.919000000    -2.433000000     2.187000000
O    -3.838000000    -2.397000000    -2.170000000
H    -3.623000000    -1.545000000    -2.549000000
H    -4.563000000    -2.216000000    -1.571000000
O     0.940000000     0.465000000    -4.112000000
H     1.215000000     0.457000000    -3.196000000
H     0.679000000    -0.438000000    -4.292000000
O    -3.023000000     3.459000000    -0.236000000
H    -3.775000000     3.808000000    -0.714000000
H    -2.623000000     2.835000000    -0.841000000
O     3.082000000    -2.048000000     4.421000000
H     3.807000000    -2.673000000     4.409000000
H     2.975000000    -1.788000000     3.506000000
O    -2.133000000     2.984000000    -7.543000000
H    -2.251000000     2.343000000    -8.244000000
H    -1.911000000     2.460000000    -6.773000000
O     2.813000000     4.151000000     4.210000000
H     2.029000000     3.873000000     3.736000000
H     3.502000000     4.167000000     3.545000000
