158
-3067.55502
C    -1.364000000    -0.526000000     0.234000000
H    -2.294000000    -1.085000000     0.306000000
C    -0.312000000    -0.566000000     1.146000000
H    -0.420000000    -1.265000000     1.971000000
C     0.931000000    -0.017000000     0.827000000
H     1.719000000    -0.155000000     1.559000000
C     1.048000000     0.710000000    -0.303000000
H     2.013000000     1.135000000    -0.565000000
C    -0.013000000     0.773000000    -1.186000000
H     0.197000000     1.289000000    -2.120000000
C    -1.256000000     0.166000000    -0.886000000
C    -2.397000000     0.302000000    -1.861000000
O    -3.255000000    -0.557000000    -1.978000000
O    -2.330000000     1.225000000    -2.652000000
O     1.083000000     5.254000000     0.501000000
H     0.380000000     5.367000000    -0.139000000
H     0.825000000     4.483000000     1.006000000
O     5.839000000     0.489000000    -3.130000000
H     5.229000000     0.214000000    -2.445000000
H     5.798000000     1.445000000    -3.118000000
O     6.414000000    -2.655000000     3.500000000
H     5.520000000    -2.590000000     3.164000000
H     6.308000000    -2.895000000     4.420000000
O    -3.513000000     0.927000000     2.146000000
H    -3.150000000     1.416000000     1.407000000
H    -3.832000000     1.601000000     2.746000000
O    -6.446000000     0.434000000    -6.025000000
H    -7.169000000    -0.052000000    -5.628000000
H    -5.816000000     0.549000000    -5.313000000
O     5.495000000    -3.221000000    -0.530000000
H     4.997000000    -2.808000000     0.175000000
H     6.208000000    -2.609000000    -0.712000000
O     3.537000000     3.539000000    -1.029000000
H     2.647000000     3.502000000    -1.378000000
H     3.604000000     4.410000000    -0.636000000
O    -2.786000000    -2.514000000     4.495000000
H    -3.527000000    -2.991000000     4.868000000
H    -2.636000000    -1.791000000     5.104000000
O    -5.927000000     2.618000000     1.162000000
H    -5.661000000     1.710000000     1.306000000
H    -5.182000000     3.017000000     0.711000000
O     4.272000000     1.989000000     3.321000000
H     4.676000000     1.671000000     2.513000000
H     4.051000000     2.901000000     3.135000000
O    -2.081000000    -3.643000000     2.154000000
H    -2.880000000    -4.085000000     1.866000000
H    -2.323000000    -3.226000000     2.981000000
O    -1.151000000     3.591000000    -6.459000000
H    -1.231000000     4.296000000    -5.816000000
H    -2.045000000     3.268000000    -6.572000000
O    -4.477000000    -1.457000000     2.370000000
H    -3.803000000    -1.794000000     2.960000000
H    -4.297000000    -0.518000000     2.312000000
O    -4.310000000     4.589000000    -3.130000000
H    -4.316000000     4.272000000    -2.226000000
H    -4.647000000     5.483000000    -3.072000000
O     2.624000000     5.816000000    -2.950000000
H     3.497000000     5.613000000    -3.286000000
H     2.214000000     4.961000000    -2.814000000
O     4.326000000    -1.776000000     1.469000000
H     4.700000000    -0.895000000     1.449000000
H     3.851000000    -1.816000000     2.299000000
O    -5.378000000     0.307000000    -0.460000000
H    -6.044000000     0.447000000    -1.134000000
H    -4.643000000    -0.089000000    -0.929000000
O     3.834000000    -5.156000000     3.569000000
H     4.001000000    -4.397000000     4.127000000
H     3.437000000    -4.790000000     2.779000000
O    -1.365000000     5.640000000    -0.778000000
H    -2.260000000     5.980000000    -0.803000000
H    -1.267000000     5.165000000    -1.603000000
O    -4.800000000    -4.139000000    -1.303000000
H    -5.346000000    -3.442000000    -1.668000000
H    -3.911000000    -3.917000000    -1.583000000
O    -7.319000000    -0.889000000     1.559000000
H    -7.518000000    -1.127000000     0.653000000
H    -6.379000000    -0.705000000     1.557000000
O     1.222000000     3.364000000    -2.724000000
H     1.482000000     2.442000000    -2.712000000
H     0.273000000     3.343000000    -2.844000000
O    -3.371000000     2.084000000    -6.147000000
H    -3.573000000     1.468000000    -6.851000000
H    -4.043000000     1.921000000    -5.485000000
O    -1.877000000     3.078000000     1.301000000
H    -1.975000000     3.627000000     2.079000000
H    -0.960000000     3.183000000     1.047000000
O     3.533000000    -2.376000000     3.924000000
H     3.716000000    -1.661000000     4.534000000
H     2.577000000    -2.417000000     3.883000000
O    -2.087000000     1.742000000     5.196000000
H    -2.976000000     2.024000000     5.412000000
H    -2.018000000     1.872000000     4.250000000
O    -2.560000000    -3.028000000    -2.649000000
H    -2.766000000    -2.141000000    -2.356000000
H    -1.911000000    -3.344000000    -2.020000000
O     5.086000000     1.485000000     0.250000000
H     4.891000000     2.351000000    -0.108000000
H     4.598000000     0.879000000    -0.308000000
O     3.094000000    -4.488000000     0.823000000
H     3.697000000    -4.852000000     0.175000000
H     2.722000000    -3.715000000     0.397000000
O    -3.934000000     4.081000000    -0.421000000
H    -3.684000000     4.944000000    -0.092000000
H    -3.145000000     3.549000000    -0.322000000
O     7.785000000     1.424000000     0.241000000
H     6.828000000     1.418000000     0.253000000
H     8.019000000     2.352000000     0.251000000
O    -7.040000000     1.429000000    -2.361000000
H    -7.012000000     2.241000000    -1.856000000
H    -6.358000000     1.535000000    -3.024000000
O    -4.955000000    -1.902000000    -4.011000000
H    -4.313000000    -2.493000000    -3.618000000
H    -4.873000000    -2.050000000    -4.953000000
O    -1.161000000    -3.969000000    -0.421000000
H    -1.371000000    -3.713000000     0.477000000
H    -1.528000000    -4.849000000    -0.512000000
O    -0.705000000     0.568000000    -4.910000000
H    -0.956000000     0.776000000    -4.010000000
H    -1.262000000     1.130000000    -5.449000000
O     3.947000000    -0.689000000    -1.363000000
H     3.693000000    -1.354000000    -2.004000000
H     3.672000000    -1.051000000    -0.521000000
O     2.477000000    -2.179000000    -3.602000000
H     2.012000000    -2.588000000    -4.332000000
H     2.129000000    -2.614000000    -2.823000000
O     0.476000000    -2.141000000     4.413000000
H    -0.008000000    -2.348000000     3.613000000
H     0.103000000    -2.722000000     5.076000000
O     0.809000000    -4.848000000     2.652000000
H     1.472000000    -4.856000000     1.961000000
H    -0.018000000    -4.718000000     2.189000000
O    -4.604000000     0.901000000    -4.105000000
H    -4.694000000    -0.035000000    -3.924000000
H    -3.754000000     1.136000000    -3.734000000
O    -4.705000000    -4.182000000     1.415000000
H    -4.907000000    -3.325000000     1.789000000
H    -4.746000000    -4.046000000     0.468000000
O    -6.972000000    -2.045000000    -1.986000000
H    -6.439000000    -1.498000000    -2.563000000
H    -7.856000000    -1.986000000    -2.348000000
O     4.677000000    -0.014000000     4.984000000
H     4.463000000     0.760000000     4.463000000
H     5.634000000    -0.048000000     4.980000000
O     1.393000000    -2.815000000    -0.819000000
H     0.591000000    -3.335000000    -0.762000000
H     1.123000000    -1.932000000    -0.567000000
O    -1.558000000     3.803000000    -2.674000000
H    -1.918000000     2.982000000    -2.340000000
H    -2.226000000     4.131000000    -3.276000000
O     2.066000000     0.664000000    -4.517000000
H     2.296000000    -0.252000000    -4.362000000
H     1.185000000     0.631000000    -4.888000000
O     0.814000000     1.834000000     4.372000000
H     0.271000000     2.218000000     5.061000000
H     1.030000000     0.960000000     4.696000000
O     0.833000000     2.902000000     1.906000000
H     0.976000000     2.810000000     2.848000000
H     0.228000000     2.194000000     1.685000000
