158
-3042.03972
C    -1.229000000    -0.710000000     0.331000000
H    -2.086000000    -1.322000000     0.601000000
C    -0.065000000    -0.812000000     1.115000000
H    -0.082000000    -1.294000000     2.089000000
C     1.105000000    -0.129000000     0.644000000
H     2.092000000    -0.033000000     1.124000000
C     1.024000000     0.576000000    -0.549000000
H     1.860000000     1.086000000    -1.021000000
C    -0.141000000     0.631000000    -1.278000000
H    -0.140000000     1.094000000    -2.261000000
C    -1.339000000     0.061000000    -0.831000000
C    -2.662000000     0.187000000    -1.476000000
O    -3.575000000    -0.586000000    -1.157000000
O    -2.812000000     0.972000000    -2.442000000
O    -1.446000000    -3.859000000     6.146000000
H    -0.551000000    -3.873000000     5.807000000
H    -1.846000000    -3.093000000     5.735000000
O     2.558000000     4.141000000    -0.559000000
H     1.716000000     4.071000000    -1.009000000
H     2.331000000     4.179000000     0.370000000
O     4.897000000    -0.179000000    -4.811000000
H     4.013000000     0.140000000    -4.632000000
H     5.468000000     0.401000000    -4.308000000
O    -1.277000000     0.038000000     3.844000000
H    -0.446000000     0.512000000     3.865000000
H    -1.936000000     0.716000000     3.689000000
O     6.209000000    -2.269000000     0.423000000
H     5.276000000    -2.477000000     0.478000000
H     6.235000000    -1.320000000     0.302000000
O     4.459000000     2.350000000    -1.309000000
H     4.991000000     2.554000000    -2.079000000
H     3.917000000     3.128000000    -1.181000000
O    -2.924000000    -2.073000000     3.665000000
H    -3.748000000    -1.748000000     4.029000000
H    -2.318000000    -1.337000000     3.752000000
O    -4.903000000     2.052000000     1.361000000
H    -5.040000000     1.233000000     0.886000000
H    -4.509000000     2.640000000     0.717000000
O     6.708000000    -1.492000000     3.977000000
H     5.760000000    -1.362000000     3.949000000
H     6.835000000    -2.396000000     3.689000000
O     1.105000000    -3.593000000     5.238000000
H     1.096000000    -3.213000000     4.359000000
H     1.923000000    -3.282000000     5.625000000
O     4.628000000     2.301000000     1.906000000
H     4.687000000     1.977000000     1.007000000
H     4.229000000     3.166000000     1.823000000
O    -1.865000000    -3.948000000     1.884000000
H    -2.184000000    -3.503000000     1.098000000
H    -2.382000000    -3.574000000     2.597000000
O    -3.158000000     4.695000000    -6.372000000
H    -3.364000000     4.315000000    -5.518000000
H    -3.719000000     5.469000000    -6.431000000
O    -6.437000000    -1.663000000     2.581000000
H    -5.943000000    -1.275000000     3.303000000
H    -6.097000000    -1.230000000     1.798000000
O    -4.030000000     5.123000000    -2.537000000
H    -3.644000000     5.914000000    -2.161000000
H    -4.975000000     5.265000000    -2.475000000
O     3.602000000    -2.635000000     1.985000000
H     2.918000000    -3.304000000     2.028000000
H     3.364000000    -2.005000000     2.665000000
O    -5.771000000    -0.243000000     0.138000000
H    -6.430000000    -0.067000000    -0.535000000
H    -4.957000000    -0.365000000    -0.351000000
O    -0.096000000     4.157000000    -1.556000000
H    -0.988000000     3.963000000    -1.267000000
H    -0.089000000     3.924000000    -2.484000000
O    -0.641000000     3.524000000    -4.193000000
H    -0.255000000     3.083000000    -4.950000000
H    -1.575000000     3.321000000    -4.249000000
O    -6.085000000     1.244000000    -5.923000000
H    -6.877000000     0.706000000    -5.919000000
H    -5.944000000     1.471000000    -5.004000000
O    -0.838000000     2.851000000     1.587000000
H    -0.639000000     2.917000000     2.521000000
H    -0.530000000     1.980000000     1.338000000
O     2.949000000    -1.034000000     4.099000000
H     3.267000000    -0.133000000     4.035000000
H     2.746000000    -1.150000000     5.027000000
O     0.541000000     2.193000000     4.048000000
H     0.460000000     2.627000000     4.897000000
H     1.459000000     1.925000000     4.002000000
O    -2.557000000    -3.174000000    -3.922000000
H    -1.996000000    -2.402000000    -3.852000000
H    -2.286000000    -3.734000000    -3.194000000
O     5.210000000     0.186000000    -0.359000000
H     4.901000000     1.009000000    -0.738000000
H     4.555000000    -0.461000000    -0.624000000
O     0.245000000     1.669000000    -6.185000000
H    -0.196000000     1.169000000    -5.497000000
H    -0.381000000     1.684000000    -6.908000000
O     2.491000000    -4.274000000    -0.663000000
H     2.692000000    -3.338000000    -0.682000000
H     3.338000000    -4.704000000    -0.784000000
O    -3.132000000     3.993000000     0.552000000
H    -2.960000000     4.924000000     0.696000000
H    -2.308000000     3.560000000     0.777000000
O     7.841000000     0.683000000     1.297000000
H     7.863000000     1.258000000     2.062000000
H     6.942000000     0.746000000     0.976000000
O    -6.632000000     3.075000000    -1.701000000
H    -5.896000000     3.517000000    -1.277000000
H    -6.242000000     2.308000000    -2.120000000
O    -5.561000000    -4.951000000     0.857000000
H    -5.348000000    -5.298000000     1.724000000
H    -4.755000000    -4.523000000     0.567000000
O    -5.437000000    -2.094000000    -3.366000000
H    -4.494000000    -2.247000000    -3.419000000
H    -5.828000000    -2.950000000    -3.544000000
O    -2.618000000    -5.097000000    -1.787000000
H    -3.289000000    -4.425000000    -1.670000000
H    -2.878000000    -5.802000000    -1.194000000
O    -1.377000000     0.040000000    -4.697000000
H    -1.739000000     0.374000000    -3.876000000
H    -2.137000000    -0.060000000    -5.270000000
O     2.083000000    -0.488000000    -3.992000000
H     1.792000000    -1.365000000    -4.240000000
H     1.274000000    -0.005000000    -3.826000000
O     4.023000000     5.874000000    -2.360000000
H     3.312000000     6.429000000    -2.681000000
H     3.591000000     5.238000000    -1.790000000
O    -7.718000000    -0.969000000    -4.594000000
H    -7.054000000    -1.311000000    -3.995000000
H    -8.216000000    -1.741000000    -4.864000000
O     1.355000000    -4.421000000     2.037000000
H     1.540000000    -4.385000000     1.098000000
H     0.414000000    -4.254000000     2.101000000
O    -5.408000000     0.895000000    -2.803000000
H    -5.800000000     0.026000000    -2.710000000
H    -4.486000000     0.767000000    -2.581000000
O    -4.121000000    -3.132000000    -0.407000000
H    -3.666000000    -2.344000000    -0.706000000
H    -4.845000000    -2.804000000     0.125000000
O    -8.022000000    -0.810000000    -1.329000000
H    -7.669000000    -1.677000000    -1.130000000
H    -8.719000000    -0.975000000    -1.964000000
O     5.208000000     1.123000000     4.131000000
H     4.897000000     1.704000000     3.438000000
H     6.163000000     1.172000000     4.074000000
O     2.887000000    -1.625000000    -1.286000000
H     2.110000000    -1.117000000    -1.054000000
H     2.974000000    -1.512000000    -2.232000000
O    -3.333000000     2.919000000    -3.968000000
H    -3.126000000     2.201000000    -3.370000000
H    -3.358000000     3.696000000    -3.409000000
O     2.626000000     3.267000000    -5.246000000
H     3.266000000     2.657000000    -5.611000000
H     1.793000000     2.797000000    -5.293000000
O    -3.598000000     0.169000000    -6.380000000
H    -3.696000000    -0.585000000    -6.961000000
H    -4.480000000     0.327000000    -6.042000000
O     3.128000000     2.332000000     5.575000000
H     2.982000000     1.873000000     6.402000000
H     3.857000000     1.864000000     5.167000000
O     1.734000000     4.842000000     2.362000000
H     2.222000000     5.198000000     3.104000000
H     0.874000000     4.627000000     2.721000000
