158
-3023.77401
C    -1.052000000    -0.959000000     0.337000000
H    -1.796000000    -1.602000000     0.800000000
C    -0.056000000    -0.432000000     1.213000000
H    -0.121000000    -0.923000000     2.180000000
C     0.920000000     0.419000000     0.717000000
H     1.771000000     0.705000000     1.367000000
C     0.868000000     0.887000000    -0.558000000
H     1.575000000     1.580000000    -1.005000000
C    -0.196000000     0.446000000    -1.390000000
H    -0.286000000     0.799000000    -2.414000000
C    -1.159000000    -0.436000000    -0.936000000
C    -2.344000000    -0.895000000    -1.707000000
O    -2.997000000    -1.913000000    -1.388000000
O    -2.603000000    -0.367000000    -2.739000000
O     3.485000000     0.038000000     4.156000000
H     3.513000000    -0.409000000     3.310000000
H     2.599000000     0.397000000     4.208000000
O    -5.301000000    -1.001000000    -6.328000000
H    -6.241000000    -0.904000000    -6.482000000
H    -4.890000000    -0.486000000    -7.023000000
O     4.418000000     3.809000000    -1.212000000
H     3.970000000     3.525000000    -0.416000000
H     5.290000000     3.419000000    -1.149000000
O    -4.934000000    -1.434000000     3.357000000
H    -4.955000000    -2.161000000     2.735000000
H    -5.370000000    -1.775000000     4.138000000
O    -4.005000000     1.351000000    -0.007000000
H    -4.574000000     0.600000000    -0.176000000
H    -3.889000000     1.355000000     0.943000000
O     6.562000000    -0.578000000     2.088000000
H     6.847000000    -1.280000000     1.503000000
H     5.607000000    -0.632000000     2.082000000
O     1.331000000     3.529000000     3.454000000
H     2.082000000     3.911000000     3.908000000
H     0.954000000     2.918000000     4.088000000
O    -1.731000000    -4.085000000    -3.141000000
H    -2.201000000    -3.942000000    -2.320000000
H    -2.256000000    -3.632000000    -3.800000000
O    -1.704000000    -1.722000000    -7.302000000
H    -0.765000000    -1.836000000    -7.448000000
H    -1.816000000    -0.778000000    -7.191000000
O    -4.964000000    -4.471000000     2.190000000
H    -5.835000000    -4.423000000     1.795000000
H    -4.780000000    -5.408000000     2.252000000
O     5.226000000    -1.185000000     6.219000000
H     4.530000000    -0.864000000     5.646000000
H     5.517000000    -0.410000000     6.699000000
O     0.004000000     1.263000000    -5.533000000
H     0.113000000     1.610000000    -6.419000000
H     0.100000000     2.027000000    -4.964000000
O    -3.029000000     2.464000000    -2.643000000
H    -2.968000000     1.604000000    -3.058000000
H    -3.300000000     2.278000000    -1.744000000
O     4.852000000     3.153000000    -4.565000000
H     4.943000000     3.951000000    -5.086000000
H     4.059000000     3.293000000    -4.048000000
O     2.276000000     3.520000000    -4.323000000
H     2.089000000     3.954000000    -5.155000000
H     1.443000000     3.539000000    -3.851000000
O     3.819000000    -1.057000000     1.697000000
H     3.489000000    -1.955000000     1.720000000
H     3.902000000    -0.856000000     0.764000000
O    -5.475000000    -0.781000000    -0.954000000
H    -5.547000000    -0.450000000    -1.849000000
H    -4.658000000    -1.280000000    -0.948000000
O     1.986000000    -2.978000000     1.968000000
H     1.667000000    -2.669000000     1.120000000
H     1.192000000    -3.139000000     2.478000000
O    -0.398000000     4.776000000    -0.229000000
H    -1.296000000     4.976000000    -0.491000000
H    -0.360000000     5.009000000     0.698000000
O    -7.420000000    -0.465000000     1.037000000
H    -8.212000000    -0.405000000     0.502000000
H    -6.702000000    -0.343000000     0.416000000
O     2.917000000     0.941000000    -4.228000000
H     3.850000000     0.948000000    -4.014000000
H     2.645000000     1.855000000    -4.139000000
O    -0.146000000     3.481000000    -3.038000000
H    -0.062000000     3.629000000    -2.096000000
H    -1.062000000     3.229000000    -3.160000000
O     1.923000000     3.566000000     0.723000000
H     1.579000000     3.532000000     1.616000000
H     1.174000000     3.830000000     0.188000000
O    -3.867000000     1.155000000     2.646000000
H    -4.408000000     0.388000000     2.458000000
H    -3.628000000     1.059000000     3.568000000
O     0.414000000    -0.485000000     5.029000000
H     1.066000000    -1.071000000     5.413000000
H    -0.320000000    -1.057000000     4.805000000
O    -4.582000000    -4.305000000    -0.873000000
H    -4.017000000    -3.533000000    -0.838000000
H    -5.471000000    -3.950000000    -0.879000000
O     5.757000000     0.892000000    -2.295000000
H     5.945000000     1.776000000    -1.982000000
H     6.492000000     0.680000000    -2.871000000
O    -4.171000000     4.779000000    -3.419000000
H    -4.023000000     3.835000000    -3.366000000
H    -3.678000000     5.141000000    -2.682000000
O     1.570000000    -5.112000000    -0.524000000
H     0.904000000    -5.510000000    -1.085000000
H     1.345000000    -4.182000000    -0.507000000
O     1.343000000     6.259000000    -2.262000000
H     1.955000000     5.553000000    -2.473000000
H     0.681000000     5.844000000    -1.709000000
O     4.236000000    -4.156000000    -0.053000000
H     4.055000000    -3.384000000    -0.589000000
H     3.494000000    -4.739000000    -0.214000000
O     3.619000000    -5.069000000     2.582000000
H     3.898000000    -4.799000000     1.707000000
H     2.931000000    -4.447000000     2.817000000
O    -1.947000000    -4.229000000     2.886000000
H    -2.856000000    -4.511000000     2.782000000
H    -1.461000000    -4.747000000     2.245000000
O    -3.481000000    -2.428000000    -4.633000000
H    -2.992000000    -1.902000000    -4.000000000
H    -3.578000000    -1.856000000    -5.395000000
O     3.740000000    -0.543000000    -1.168000000
H     4.463000000    -0.099000000    -1.611000000
H     3.042000000     0.111000000    -1.134000000
O     3.844000000     5.556000000     1.674000000
H     3.449000000     4.897000000     1.103000000
H     3.242000000     5.622000000     2.415000000
O     1.003000000    -3.602000000    -3.807000000
H     0.165000000    -3.958000000    -3.512000000
H     0.807000000    -2.696000000    -4.045000000
O    -1.221000000    -2.843000000     5.072000000
H    -1.599000000    -3.173000000     4.258000000
H    -1.903000000    -2.282000000     5.443000000
O     0.953000000    -4.218000000     4.238000000
H     1.690000000    -4.212000000     4.848000000
H     0.214000000    -3.890000000     4.751000000
O    -6.411000000     1.610000000    -5.833000000
H    -6.565000000     2.433000000    -5.370000000
H    -6.249000000     0.972000000    -5.138000000
O    -7.142000000    -3.471000000    -0.236000000
H    -7.012000000    -2.842000000     0.473000000
H    -7.837000000    -3.089000000    -0.772000000
O    -5.364000000    -0.013000000    -3.804000000
H    -4.426000000     0.137000000    -3.692000000
H    -5.425000000    -0.607000000    -4.552000000
O     4.717000000     2.134000000     5.492000000
H     4.078000000     1.612000000     5.006000000
H     4.208000000     2.545000000     6.191000000
O     1.441000000    -2.494000000    -0.751000000
H     0.626000000    -1.993000000    -0.778000000
H     2.112000000    -1.876000000    -1.043000000
O    -0.404000000    -1.268000000    -4.527000000
H    -1.017000000    -1.047000000    -3.825000000
H    -0.142000000    -0.423000000    -4.891000000
O     2.563000000     0.352000000    -6.728000000
H     2.515000000     1.168000000    -7.225000000
H     2.741000000     0.630000000    -5.829000000
O    -6.407000000    -3.277000000    -4.250000000
H    -5.473000000    -3.070000000    -4.247000000
H    -6.650000000    -3.274000000    -5.176000000
O     0.320000000     2.015000000     5.613000000
H     0.330000000     1.072000000     5.452000000
H     1.080000000     2.171000000     6.174000000
