158
-3031.99819
C    -1.478000000    -0.438000000     0.045000000
H    -2.472000000    -0.860000000     0.161000000
C    -0.486000000    -0.807000000     0.986000000
H    -0.711000000    -1.532000000     1.764000000
C     0.814000000    -0.282000000     0.945000000
H     1.611000000    -0.561000000     1.628000000
C     1.142000000     0.583000000    -0.086000000
H     2.102000000     1.079000000    -0.195000000
C     0.209000000     0.926000000    -1.099000000
H     0.535000000     1.663000000    -1.828000000
C    -1.121000000     0.347000000    -1.050000000
C    -2.048000000     0.586000000    -2.197000000
O    -3.226000000     0.326000000    -2.290000000
O    -1.522000000     0.932000000    -3.214000000
O    -4.391000000     0.970000000     2.902000000
H    -3.982000000     1.387000000     2.143000000
H    -5.015000000     1.620000000     3.224000000
O    -0.390000000    -4.442000000     4.339000000
H     0.525000000    -4.164000000     4.344000000
H    -0.889000000    -3.627000000     4.403000000
O     1.690000000     4.866000000     0.848000000
H     1.766000000     4.032000000     0.383000000
H     0.980000000     5.326000000     0.401000000
O     3.447000000    -5.116000000     1.205000000
H     2.947000000    -5.243000000     2.011000000
H     3.984000000    -4.342000000     1.376000000
O    -1.814000000     0.595000000     3.999000000
H    -1.273000000     1.205000000     3.496000000
H    -2.704000000     0.933000000     3.905000000
O    -6.471000000     3.186000000    -2.299000000
H    -6.067000000     2.560000000    -2.900000000
H    -5.788000000     3.377000000    -1.657000000
O     4.607000000    -2.730000000     2.069000000
H     4.198000000    -2.156000000     1.421000000
H     4.254000000    -2.433000000     2.908000000
O    -1.599000000    -2.125000000     4.657000000
H    -2.499000000    -1.897000000     4.891000000
H    -1.291000000    -1.383000000     4.137000000
O    -5.239000000    -1.790000000     2.846000000
H    -6.103000000    -1.495000000     3.134000000
H    -4.754000000    -0.983000000     2.679000000
O    -4.646000000     1.508000000    -0.162000000
H    -4.272000000     1.087000000    -0.935000000
H    -3.987000000     2.148000000     0.106000000
O     3.016000000     0.752000000     5.853000000
H     2.660000000    -0.015000000     6.300000000
H     2.853000000     1.478000000     6.456000000
O     7.534000000    -1.345000000     2.804000000
H     7.928000000    -0.514000000     2.537000000
H     6.591000000    -1.193000000     2.742000000
O     2.393000000    -4.380000000     3.650000000
H     2.697000000    -3.473000000     3.658000000
H     2.799000000    -4.775000000     4.422000000
O     4.014000000     2.597000000     0.773000000
H     4.100000000     3.163000000     0.006000000
H     3.094000000     2.332000000     0.774000000
O    -1.173000000    -5.528000000     1.730000000
H    -2.049000000    -5.706000000     1.387000000
H    -1.313000000    -4.875000000     2.415000000
O    -2.535000000     3.413000000    -6.784000000
H    -2.156000000     2.534000000    -6.784000000
H    -3.479000000     3.268000000    -6.835000000
O    -5.724000000    -3.465000000     0.314000000
H    -5.135000000    -2.976000000    -0.261000000
H    -5.837000000    -2.900000000     1.078000000
O     4.277000000     1.882000000    -3.985000000
H     4.744000000     2.383000000    -4.653000000
H     4.382000000     0.969000000    -4.252000000
O     2.568000000    -2.511000000    -0.471000000
H     1.816000000    -3.082000000    -0.316000000
H     2.238000000    -1.628000000    -0.303000000
O     0.207000000     4.989000000    -1.874000000
H    -0.588000000     5.275000000    -1.424000000
H    -0.090000000     4.741000000    -2.749000000
O    -2.027000000    -2.978000000    -3.181000000
H    -2.183000000    -3.846000000    -2.809000000
H    -1.080000000    -2.944000000    -3.319000000
O     0.650000000    -1.040000000    -7.142000000
H     0.893000000    -0.753000000    -6.262000000
H    -0.002000000    -0.402000000    -7.431000000
O    -7.500000000     1.022000000    -0.073000000
H    -6.558000000     1.145000000     0.049000000
H    -7.731000000     1.627000000    -0.778000000
O    -3.521000000     0.817000000    -6.689000000
H    -3.079000000     0.174000000    -6.135000000
H    -4.338000000     0.390000000    -6.947000000
O    -3.760000000    -4.431000000     3.265000000
H    -4.367000000    -4.828000000     2.640000000
H    -4.062000000    -3.526000000     3.350000000
O    -0.478000000     2.084000000     2.300000000
H     0.363000000     2.500000000     2.493000000
H    -0.260000000     1.372000000     1.699000000
O     3.253000000    -1.913000000     4.286000000
H     4.029000000    -2.004000000     4.839000000
H     2.881000000    -1.067000000     4.532000000
O     2.096000000     2.489000000     3.729000000
H     2.547000000     3.302000000     3.956000000
H     2.227000000     1.923000000     4.489000000
O     0.650000000    -0.425000000    -4.721000000
H    -0.061000000    -0.068000000    -4.189000000
H     1.148000000     0.343000000    -5.002000000
O     6.583000000     1.989000000    -1.073000000
H     6.946000000     1.742000000    -1.923000000
H     5.842000000     1.395000000    -0.947000000
O     6.412000000    -2.436000000    -1.035000000
H     6.911000000    -2.834000000    -1.748000000
H     5.733000000    -1.924000000    -1.475000000
O     5.678000000     0.164000000     1.304000000
H     5.182000000     0.757000000     0.740000000
H     6.261000000    -0.304000000     0.706000000
O    -4.341000000     4.405000000    -0.647000000
H    -4.631000000     5.021000000     0.026000000
H    -3.863000000     3.730000000    -0.165000000
O    -2.720000000    -0.804000000    -4.683000000
H    -2.212000000    -0.085000000    -4.308000000
H    -2.636000000    -1.514000000    -4.046000000
O    -1.472000000     3.430000000    -4.128000000
H    -1.927000000     3.241000000    -4.948000000
H    -1.497000000     2.604000000    -3.645000000
O     4.141000000    -2.440000000    -3.164000000
H     3.564000000    -2.987000000    -3.698000000
H     3.731000000    -2.432000000    -2.299000000
O     2.502000000     3.603000000    -1.521000000
H     3.040000000     3.771000000    -2.295000000
H     1.677000000     4.052000000    -1.701000000
O     0.679000000    -3.048000000    -3.532000000
H     0.987000000    -2.166000000    -3.738000000
H     0.872000000    -3.559000000    -4.318000000
O     0.115000000    -4.061000000    -0.236000000
H    -0.788000000    -3.995000000    -0.545000000
H     0.037000000    -4.360000000     0.670000000
O    -4.767000000     1.720000000    -3.884000000
H    -4.449000000     1.463000000    -4.750000000
H    -4.145000000     1.324000000    -3.274000000
O    -4.105000000    -2.044000000    -1.450000000
H    -4.044000000    -1.090000000    -1.511000000
H    -3.456000000    -2.366000000    -2.075000000
O    -5.560000000    -1.756000000    -4.375000000
H    -4.724000000    -1.294000000    -4.303000000
H    -5.423000000    -2.391000000    -5.078000000
O     5.529000000     4.173000000     2.646000000
H     5.013000000     3.593000000     2.087000000
H     6.410000000     4.143000000     2.273000000
O     4.514000000     0.185000000    -1.732000000
H     4.273000000     0.887000000    -2.337000000
H     4.283000000    -0.620000000    -2.195000000
O    -2.775000000     5.342000000    -2.843000000
H    -2.679000000     4.611000000    -3.453000000
H    -3.451000000     5.055000000    -2.229000000
O    -2.511000000     3.204000000     0.871000000
H    -1.847000000     2.859000000     1.467000000
H    -2.690000000     4.086000000     1.196000000
O     1.815000000     2.087000000    -5.285000000
H     1.648000000     2.978000000    -5.592000000
H     2.525000000     2.181000000    -4.649000000
O     5.598000000     0.897000000     4.293000000
H     5.528000000     0.870000000     3.339000000
H     4.699000000     0.785000000     4.602000000
