158
-3024.43199
C    -0.364000000    -0.842000000     1.202000000
H    -0.680000000    -1.459000000     2.039000000
C    -0.482000000     0.547000000     1.120000000
H    -0.827000000     1.052000000     2.019000000
C    -0.154000000     1.235000000    -0.005000000
H    -0.216000000     2.307000000     0.167000000
C     0.330000000     0.511000000    -1.077000000
H     0.535000000     1.087000000    -1.976000000
C     0.365000000    -0.904000000    -1.127000000
H     0.783000000    -1.314000000    -2.042000000
C    -0.011000000    -1.601000000     0.004000000
C     0.278000000    -3.081000000     0.077000000
O     0.639000000    -3.661000000    -0.898000000
O     0.193000000    -3.663000000     1.183000000
O    -4.160000000    -4.034000000    -1.996000000
H    -4.512000000    -4.916000000    -2.114000000
H    -4.019000000    -3.956000000    -1.052000000
O    -3.268000000     6.007000000    -3.677000000
H    -2.941000000     6.763000000    -4.164000000
H    -2.775000000     5.265000000    -4.028000000
O     2.529000000    -6.209000000     4.246000000
H     1.878000000    -6.446000000     3.585000000
H     3.347000000    -6.124000000     3.756000000
O     2.656000000     2.394000000     1.667000000
H     2.031000000     3.052000000     1.365000000
H     2.332000000     1.570000000     1.303000000
O     0.761000000     5.113000000     3.790000000
H     1.037000000     5.964000000     4.129000000
H     1.526000000     4.550000000     3.905000000
O    -2.027000000    -3.639000000     2.543000000
H    -1.378000000    -3.850000000     1.872000000
H    -1.564000000    -3.763000000     3.372000000
O    -4.697000000    -2.605000000     4.926000000
H    -4.005000000    -2.105000000     4.494000000
H    -5.115000000    -1.977000000     5.515000000
O    -1.557000000    -3.329000000    -2.579000000
H    -0.742000000    -3.478000000    -2.100000000
H    -2.195000000    -3.899000000    -2.150000000
O     4.609000000     4.224000000     2.001000000
H     5.389000000     3.670000000     1.994000000
H     3.911000000     3.659000000     1.670000000
O    -0.116000000    -1.947000000    -5.271000000
H    -0.877000000    -1.720000000    -4.735000000
H     0.220000000    -1.105000000    -5.578000000
O    -1.339000000     4.269000000     1.766000000
H    -0.392000000     4.398000000     1.819000000
H    -1.687000000     4.733000000     2.528000000
O    -0.405000000    -4.043000000     4.796000000
H     0.277000000    -3.638000000     4.261000000
H     0.064000000    -4.409000000     5.545000000
O    -3.074000000     3.344000000    -0.012000000
H    -3.526000000     2.653000000     0.472000000
H    -2.367000000     3.622000000     0.570000000
O    -2.216000000     5.060000000     4.415000000
H    -1.276000000     4.917000000     4.522000000
H    -2.624000000     4.419000000     4.998000000
O     0.016000000     2.641000000    -4.403000000
H    -0.863000000     2.523000000    -4.761000000
H    -0.019000000     3.488000000    -3.957000000
O    -4.716000000    -3.686000000     0.611000000
H    -4.227000000    -2.973000000     1.021000000
H    -5.612000000    -3.574000000     0.927000000
O     2.942000000    -0.211000000    -4.383000000
H     3.628000000     0.359000000    -4.729000000
H     2.265000000    -0.210000000    -5.059000000
O     0.840000000    -9.085000000    -1.079000000
H     1.356000000    -8.612000000    -1.731000000
H     0.455000000    -8.399000000    -0.534000000
O     1.800000000    -3.904000000    -5.694000000
H     1.388000000    -4.753000000    -5.853000000
H     1.069000000    -3.290000000    -5.637000000
O    -2.319000000    -4.665000000    -5.496000000
H    -1.894000000    -4.388000000    -4.685000000
H    -2.530000000    -5.587000000    -5.353000000
O     4.118000000    -6.723000000    -0.409000000
H     3.699000000    -7.374000000    -0.971000000
H     3.884000000    -5.881000000    -0.801000000
O     0.642000000     8.344000000    -1.926000000
H     0.326000000     7.591000000    -1.428000000
H    -0.031000000     9.013000000    -1.802000000
O    -2.686000000    -7.601000000    -2.716000000
H    -3.548000000    -7.253000000    -2.488000000
H    -2.118000000    -7.326000000    -1.997000000
O     2.984000000     3.636000000     4.276000000
H     3.587000000     2.945000000     4.549000000
H     2.946000000     3.559000000     3.323000000
O    -4.740000000     0.784000000     0.122000000
H    -4.747000000     0.090000000     0.782000000
H    -5.467000000     0.566000000    -0.462000000
O     3.565000000    -1.874000000     5.067000000
H     4.044000000    -1.154000000     4.657000000
H     3.156000000    -2.337000000     4.336000000
O    -2.450000000     2.214000000    -5.483000000
H    -3.329000000     2.269000000    -5.107000000
H    -2.346000000     1.291000000    -5.713000000
O    -5.100000000     4.913000000     0.323000000
H    -5.760000000     4.404000000     0.794000000
H    -4.310000000     4.374000000     0.359000000
O    -1.109000000     4.545000000    -2.213000000
H    -0.937000000     3.675000000    -1.854000000
H    -2.062000000     4.635000000    -2.177000000
O     0.592000000    -6.372000000     2.422000000
H     0.606000000    -6.588000000     1.489000000
H     0.425000000    -5.430000000     2.447000000
O     0.396000000    -6.191000000    -0.342000000
H     0.652000000    -5.277000000    -0.470000000
H    -0.556000000    -6.189000000    -0.439000000
O    -4.095000000     2.783000000    -2.593000000
H    -3.574000000     1.998000000    -2.428000000
H    -3.978000000     3.319000000    -1.808000000
O     2.121000000    -3.177000000     3.131000000
H     1.450000000    -3.462000000     2.511000000
H     2.860000000    -2.914000000     2.581000000
O     3.295000000    -2.557000000    -3.260000000
H     2.652000000    -2.952000000    -3.848000000
H     3.019000000    -1.644000000    -3.181000000
O     3.205000000    -4.011000000    -1.075000000
H     2.260000000    -3.990000000    -0.924000000
H     3.317000000    -3.627000000    -1.945000000
O    -0.205000000     6.358000000    -0.165000000
H    -0.924000000     6.884000000     0.185000000
H    -0.592000000     5.882000000    -0.900000000
O     5.159000000    -0.638000000    -1.934000000
H     5.004000000     0.286000000    -2.129000000
H     4.619000000    -1.111000000    -2.567000000
O    -2.282000000    -6.061000000    -0.200000000
H    -2.109000000    -5.305000000     0.362000000
H    -2.578000000    -6.744000000     0.401000000
O     5.444000000     1.965000000    -3.593000000
H     5.533000000     1.154000000    -4.093000000
H     4.534000000     1.965000000    -3.297000000
O     1.928000000     4.794000000     0.594000000
H     2.325000000     4.731000000    -0.275000000
H     1.378000000     5.577000000     0.550000000
O     1.063000000     0.519000000    -6.178000000
H     0.637000000     1.275000000    -5.773000000
H     1.513000000     0.879000000    -6.943000000
O    -4.410000000    -4.795000000     3.422000000
H    -4.483000000    -3.996000000     3.943000000
H    -3.570000000    -4.711000000     2.971000000
O     2.785000000     2.199000000    -2.884000000
H     2.179000000     2.890000000    -3.154000000
H     2.385000000     1.391000000    -3.205000000
O     2.649000000     6.913000000     3.349000000
H     2.818000000     6.347000000     2.595000000
H     3.231000000     7.662000000     3.221000000
O     3.052000000     5.105000000    -1.950000000
H     3.159000000     4.695000000    -2.808000000
H     3.692000000     5.816000000    -1.942000000
O     4.097000000    -1.898000000     0.784000000
H     5.034000000    -2.075000000     0.692000000
H     3.679000000    -2.492000000     0.161000000
O    -2.735000000     0.608000000    -1.716000000
H    -1.921000000     0.422000000    -1.249000000
H    -3.408000000     0.609000000    -1.035000000
O    -1.859000000    -0.854000000    -3.697000000
H    -1.787000000    -1.648000000    -3.167000000
H    -2.445000000    -0.285000000    -3.198000000
