158
-3054.62837
C    -0.947000000    -1.120000000    -0.339000000
H    -1.582000000    -2.000000000    -0.400000000
C    -0.585000000    -0.731000000     0.955000000
H    -1.032000000    -1.310000000     1.760000000
C     0.262000000     0.414000000     1.147000000
H     0.609000000     0.690000000     2.140000000
C     0.742000000     1.098000000     0.032000000
H     1.501000000     1.856000000     0.206000000
C     0.394000000     0.683000000    -1.227000000
H     0.920000000     1.115000000    -2.074000000
C    -0.423000000    -0.451000000    -1.477000000
C    -0.714000000    -0.791000000    -2.889000000
O    -1.504000000    -1.715000000    -3.184000000
O    -0.073000000    -0.305000000    -3.795000000
O    -1.081000000     2.964000000     5.415000000
H    -1.296000000     2.124000000     5.820000000
H    -1.285000000     2.841000000     4.488000000
O     2.554000000     1.557000000     3.633000000
H     2.288000000     1.986000000     2.819000000
H     3.501000000     1.694000000     3.676000000
O    -3.604000000     1.413000000     2.317000000
H    -4.112000000     1.125000000     1.559000000
H    -4.225000000     1.915000000     2.845000000
O     3.365000000    -1.255000000     2.378000000
H     3.869000000    -0.748000000     1.741000000
H     2.877000000    -0.599000000     2.874000000
O     4.185000000    -0.740000000     6.347000000
H     4.568000000    -1.029000000     5.519000000
H     4.373000000     0.198000000     6.383000000
O    -3.876000000    -0.918000000    -3.965000000
H    -3.042000000    -1.150000000    -3.557000000
H    -3.763000000    -1.146000000    -4.888000000
O    -2.572000000    -0.610000000     3.729000000
H    -2.797000000     0.162000000     3.209000000
H    -2.196000000    -0.255000000     4.535000000
O    -1.771000000     0.472000000     6.519000000
H    -2.571000000     0.867000000     6.866000000
H    -1.263000000     0.238000000     7.296000000
O    -1.174000000     5.358000000    -0.809000000
H    -1.348000000     4.560000000    -0.310000000
H    -1.637000000     5.228000000    -1.637000000
O    -1.681000000     3.598000000     1.457000000
H    -2.327000000     4.197000000     1.832000000
H    -2.087000000     2.734000000     1.528000000
O     0.798000000    -6.222000000    -2.920000000
H    -0.140000000    -6.228000000    -2.731000000
H     0.979000000    -5.328000000    -3.211000000
O    -3.068000000    -1.568000000    -6.387000000
H    -2.378000000    -1.037000000    -5.990000000
H    -2.892000000    -1.526000000    -7.327000000
O     0.175000000    -3.680000000    -4.048000000
H    -0.501000000    -3.007000000    -4.131000000
H     0.943000000    -3.209000000    -3.726000000
O     1.587000000    -3.425000000     4.371000000
H     2.379000000    -3.741000000     4.805000000
H     1.635000000    -3.791000000     3.488000000
O    -5.034000000    -1.923000000     4.112000000
H    -4.200000000    -1.466000000     4.219000000
H    -4.789000000    -2.835000000     3.953000000
O    -5.193000000    -3.332000000    -0.346000000
H    -4.619000000    -2.910000000     0.293000000
H    -4.624000000    -3.516000000    -1.093000000
O    -2.488000000     4.552000000    -3.174000000
H    -3.221000000     4.639000000    -3.784000000
H    -1.764000000     4.236000000    -3.714000000
O     0.331000000    -6.292000000     2.308000000
H    -0.621000000    -6.218000000     2.366000000
H     0.607000000    -5.493000000     1.858000000
O    -5.481000000     1.264000000    -3.304000000
H    -4.810000000     0.581000000    -3.313000000
H    -5.520000000     1.573000000    -4.210000000
O    -3.777000000    -1.808000000     1.453000000
H    -3.441000000    -1.477000000     2.286000000
H    -3.879000000    -1.027000000     0.909000000
O    -0.346000000    -4.692000000    -6.835000000
H     0.485000000    -4.243000000    -6.988000000
H    -0.391000000    -4.794000000    -5.884000000
O     4.217000000    -3.893000000     3.396000000
H     4.257000000    -4.554000000     2.704000000
H     3.695000000    -3.184000000     3.020000000
O     4.200000000    -0.582000000    -6.722000000
H     4.641000000     0.171000000    -7.116000000
H     3.530000000    -0.199000000    -6.157000000
O     1.615000000     3.629000000     5.441000000
H     1.644000000     3.780000000     4.496000000
H     0.708000000     3.381000000     5.616000000
O     4.246000000     3.070000000     1.367000000
H     4.166000000     3.791000000     1.991000000
H     4.183000000     3.488000000     0.508000000
O    -3.342000000     3.116000000    -1.043000000
H    -3.149000000     3.519000000    -1.889000000
H    -2.563000000     2.598000000    -0.840000000
O    -3.326000000    -3.430000000    -2.274000000
H    -2.670000000    -2.736000000    -2.210000000
H    -3.552000000    -3.460000000    -3.204000000
O     2.752000000    -3.909000000    -2.220000000
H     2.513000000    -3.247000000    -1.571000000
H     3.009000000    -4.671000000    -1.701000000
O     3.623000000     4.968000000    -0.729000000
H     4.225000000     5.473000000    -1.275000000
H     2.927000000     5.586000000    -0.505000000
O     5.763000000     1.161000000    -1.685000000
H     4.930000000     1.566000000    -1.926000000
H     6.308000000     1.249000000    -2.467000000
O    -2.062000000    -4.242000000     1.195000000
H    -2.339000000    -5.047000000     1.633000000
H    -2.631000000    -3.564000000     1.558000000
O    -0.921000000     3.071000000    -5.105000000
H    -0.184000000     3.001000000    -4.498000000
H    -1.090000000     2.171000000    -5.382000000
O    -1.179000000    -5.402000000    -1.027000000
H    -1.470000000    -5.017000000    -0.200000000
H    -1.584000000    -4.856000000    -1.701000000
O    -0.932000000    -3.047000000     4.870000000
H    -1.059000000    -2.122000000     4.658000000
H     0.011000000    -3.185000000     4.785000000
O     2.355000000     0.139000000    -4.772000000
H     2.589000000    -0.782000000    -4.654000000
H     1.491000000     0.220000000    -4.367000000
O     2.814000000    -2.555000000    -4.632000000
H     2.940000000    -3.286000000    -4.027000000
H     2.996000000    -2.925000000    -5.496000000
O     3.657000000     2.814000000    -2.374000000
H     3.027000000     2.957000000    -3.080000000
H     3.518000000     3.549000000    -1.777000000
O    -0.995000000     0.162000000    -6.179000000
H    -0.824000000    -0.101000000    -5.275000000
H    -0.221000000    -0.127000000    -6.663000000
O     2.301000000    -1.958000000    -0.339000000
H     1.610000000    -1.349000000    -0.601000000
H     2.637000000    -1.599000000     0.483000000
O     0.209000000    -2.556000000     7.333000000
H    -0.029000000    -2.767000000     6.430000000
H    -0.349000000    -1.812000000     7.560000000
O     5.646000000    -1.211000000     4.075000000
H     4.858000000    -1.354000000     3.550000000
H     6.367000000    -1.460000000     3.496000000
O    -6.568000000    -1.712000000    -4.539000000
H    -6.353000000    -2.220000000    -5.321000000
H    -5.736000000    -1.327000000    -4.266000000
O     1.287000000    -3.922000000     1.694000000
H     1.741000000    -3.847000000     0.854000000
H     0.383000000    -3.676000000     1.499000000
O     4.797000000     0.364000000     0.758000000
H     4.944000000     0.587000000    -0.161000000
H     4.730000000     1.210000000     1.202000000
O     2.037000000     2.959000000    -4.573000000
H     2.507000000     3.388000000    -5.288000000
H     2.018000000     2.034000000    -4.818000000
O    -4.683000000     0.588000000    -0.177000000
H    -5.381000000     0.478000000    -0.823000000
H    -4.256000000     1.408000000    -0.423000000
O    -3.523000000    -4.167000000    -5.089000000
H    -2.962000000    -3.541000000    -5.548000000
H    -2.960000000    -4.927000000    -4.939000000
O     0.932000000     3.773000000     2.545000000
H     1.154000000     4.685000000     2.357000000
H     0.101000000     3.630000000     2.092000000
