158
-3013.18082
C    -1.352000000    -0.308000000     0.627000000
H    -2.341000000    -0.397000000     1.070000000
C    -0.402000000     0.604000000     1.093000000
H    -0.517000000     1.206000000     1.991000000
C     0.783000000     0.803000000     0.415000000
H     1.511000000     1.518000000     0.908000000
C     1.185000000     0.015000000    -0.633000000
H     2.104000000     0.272000000    -1.153000000
C     0.278000000    -0.925000000    -1.079000000
H     0.544000000    -1.470000000    -1.981000000
C    -1.020000000    -1.094000000    -0.487000000
C    -2.005000000    -2.148000000    -0.982000000
O    -3.122000000    -2.163000000    -0.570000000
O    -1.699000000    -2.899000000    -1.900000000
O     1.766000000     7.529000000    -1.456000000
H     2.024000000     7.890000000    -0.608000000
H     2.029000000     6.610000000    -1.415000000
O    -6.894000000    -1.135000000    -1.813000000
H    -7.695000000    -0.611000000    -1.801000000
H    -6.949000000    -1.638000000    -2.626000000
O     5.105000000    -1.033000000    -2.210000000
H     4.292000000    -1.247000000    -2.668000000
H     5.684000000    -0.697000000    -2.894000000
O     0.112000000    -0.025000000    -4.605000000
H    -0.451000000    -0.798000000    -4.647000000
H    -0.287000000     0.595000000    -5.215000000
O    -5.224000000    -0.459000000     2.596000000
H    -4.424000000    -0.438000000     2.072000000
H    -5.683000000     0.349000000     2.365000000
O    -6.429000000     1.960000000     1.814000000
H    -6.780000000     2.481000000     2.536000000
H    -5.511000000     2.223000000     1.753000000
O    -4.914000000     2.661000000    -1.960000000
H    -4.681000000     1.763000000    -1.721000000
H    -4.324000000     2.876000000    -2.683000000
O    -1.276000000     7.405000000     1.624000000
H    -2.191000000     7.554000000     1.385000000
H    -1.032000000     6.609000000     1.152000000
O    -5.336000000    -5.438000000     1.557000000
H    -4.690000000    -4.886000000     1.117000000
H    -4.817000000    -6.113000000     1.994000000
O     1.320000000     5.853000000     5.038000000
H     0.851000000     6.109000000     4.243000000
H     0.881000000     6.334000000     5.740000000
O     2.175000000     2.382000000    -3.517000000
H     2.287000000     2.457000000    -4.464000000
H     1.942000000     1.465000000    -3.375000000
O    -1.818000000    -5.251000000     3.694000000
H    -0.862000000    -5.215000000     3.643000000
H    -2.117000000    -4.762000000     2.928000000
O    -4.923000000     0.046000000    -0.478000000
H    -4.189000000    -0.497000000    -0.764000000
H    -5.675000000    -0.294000000    -0.962000000
O     5.524000000     4.902000000     0.152000000
H     5.651000000     3.961000000     0.269000000
H     5.439000000     5.244000000     1.042000000
O    -1.950000000     2.435000000    -0.773000000
H    -2.045000000     2.285000000    -1.714000000
H    -1.238000000     1.852000000    -0.508000000
O     1.210000000    -1.975000000     2.412000000
H     0.575000000    -1.900000000     1.700000000
H     1.101000000    -1.169000000     2.916000000
O    -4.453000000     0.217000000    -4.158000000
H    -5.042000000    -0.467000000    -3.840000000
H    -4.850000000     0.514000000    -4.976000000
O    -3.832000000     2.195000000     1.170000000
H    -3.226000000     2.744000000     0.673000000
H    -3.991000000     1.441000000     0.603000000
O    -0.365000000    -4.652000000     0.008000000
H     0.512000000    -4.516000000    -0.350000000
H    -0.952000000    -4.514000000    -0.736000000
O     3.861000000    -0.128000000     4.490000000
H     4.172000000    -0.258000000     5.386000000
H     3.756000000     0.820000000     4.408000000
O     2.599000000    -3.087000000    -3.793000000
H     1.705000000    -3.427000000    -3.846000000
H     3.056000000    -3.498000000    -4.526000000
O     1.441000000     4.335000000    -1.354000000
H     2.380000000     4.521000000    -1.329000000
H     1.340000000     3.713000000    -2.073000000
O     4.509000000     2.624000000    -1.747000000
H     5.187000000     1.982000000    -1.955000000
H     3.882000000     2.552000000    -2.467000000
O     0.768000000     0.047000000     4.204000000
H     1.706000000    -0.129000000     4.137000000
H     0.699000000     1.001000000     4.157000000
O     4.778000000     2.516000000     1.323000000
H     4.327000000     2.879000000     2.085000000
H     4.156000000     2.622000000     0.604000000
O    -2.904000000    -2.975000000     2.313000000
H    -2.265000000    -2.273000000     2.438000000
H    -3.030000000    -3.018000000     1.365000000
O    -0.685000000     5.344000000    -0.083000000
H    -1.415000000     4.765000000    -0.303000000
H     0.094000000     4.860000000    -0.357000000
O    -5.425000000    -3.355000000    -0.581000000
H    -4.602000000    -2.881000000    -0.697000000
H    -6.062000000    -2.861000000    -1.097000000
O     2.168000000    -4.300000000    -1.274000000
H     2.586000000    -5.147000000    -1.432000000
H     2.200000000    -3.856000000    -2.122000000
O    -2.123000000     0.882000000    -2.874000000
H    -1.370000000     0.461000000    -3.288000000
H    -2.868000000     0.635000000    -3.422000000
O    -4.176000000    -3.225000000    -3.075000000
H    -3.332000000    -3.087000000    -2.645000000
H    -3.953000000    -3.432000000    -3.982000000
O     1.143000000     3.112000000     3.785000000
H     1.255000000     3.065000000     4.734000000
H     0.812000000     3.997000000     3.627000000
O    -3.223000000    -4.848000000    -0.810000000
H    -2.797000000    -3.996000000    -0.897000000
H    -4.149000000    -4.671000000    -0.975000000
O    -1.880000000    -6.673000000    -2.404000000
H    -1.682000000    -5.876000000    -2.896000000
H    -2.249000000    -6.359000000    -1.579000000
O    -2.881000000     1.970000000     4.438000000
H    -2.120000000     1.912000000     3.860000000
H    -3.422000000     2.660000000     4.052000000
O    -2.228000000    -2.113000000    -5.378000000
H    -2.262000000    -2.211000000    -6.330000000
H    -3.115000000    -1.848000000    -5.133000000
O    -0.923000000     5.295000000     3.611000000
H    -1.671000000     4.739000000     3.394000000
H    -1.142000000     6.148000000     3.236000000
O    -6.685000000    -4.137000000    -3.153000000
H    -6.958000000    -3.424000000    -3.731000000
H    -5.735000000    -4.042000000    -3.087000000
O     3.855000000     5.412000000    -2.224000000
H     4.560000000     5.013000000    -1.713000000
H     3.890000000     4.964000000    -3.069000000
O    -1.719000000    -1.327000000     4.318000000
H    -0.960000000    -0.835000000     4.631000000
H    -1.604000000    -2.204000000     4.685000000
O     7.235000000     1.322000000     1.673000000
H     7.066000000     0.662000000     2.345000000
H     6.367000000     1.649000000     1.435000000
O     3.768000000     2.429000000     4.972000000
H     3.576000000     2.310000000     5.902000000
H     3.783000000     3.379000000     4.850000000
O     2.807000000    -0.464000000    -4.680000000
H     1.894000000    -0.291000000    -4.908000000
H     2.787000000    -1.314000000    -4.240000000
O     3.304000000    -3.543000000     1.201000000
H     2.781000000    -3.527000000     0.400000000
H     3.027000000    -2.765000000     1.684000000
O     5.820000000    -0.121000000    -4.825000000
H     4.935000000    -0.408000000    -4.599000000
H     5.767000000     0.110000000    -5.753000000
O    -1.040000000    -7.096000000     0.901000000
H    -0.413000000    -7.600000000     0.383000000
H    -0.941000000    -6.196000000     0.589000000
O    -0.008000000    -3.332000000    -3.866000000
H    -0.548000000    -3.150000000    -4.635000000
H    -0.563000000    -3.100000000    -3.123000000
O    -6.899000000    -3.001000000     2.041000000
H    -6.293000000    -2.295000000     2.265000000
H    -6.346000000    -3.675000000     1.645000000
