158
-3029.16348
C    -1.384000000    -0.140000000     0.614000000
H    -2.373000000     0.016000000     1.039000000
C    -0.382000000     0.703000000     1.091000000
H    -0.479000000     1.469000000     1.856000000
C     0.910000000     0.630000000     0.506000000
H     1.656000000     1.258000000     0.904000000
C     1.113000000    -0.244000000    -0.592000000
H     2.092000000    -0.328000000    -1.058000000
C     0.112000000    -0.989000000    -1.135000000
H     0.414000000    -1.676000000    -1.922000000
C    -1.147000000    -0.956000000    -0.555000000
C    -2.288000000    -1.660000000    -1.216000000
O    -3.411000000    -1.295000000    -0.823000000
O    -2.124000000    -2.412000000    -2.161000000
O    -6.526000000    -0.299000000    -3.773000000
H    -5.646000000    -0.399000000    -3.410000000
H    -6.501000000    -0.784000000    -4.598000000
O     5.802000000     1.838000000    -0.756000000
H     5.446000000     1.241000000    -1.414000000
H     6.393000000     2.410000000    -1.246000000
O     2.129000000    -4.612000000    -1.902000000
H     2.682000000    -5.381000000    -1.759000000
H     1.412000000    -4.931000000    -2.450000000
O     1.182000000     4.008000000    -3.307000000
H     1.775000000     3.265000000    -3.418000000
H     0.515000000     3.694000000    -2.696000000
O    -6.521000000     1.589000000     0.997000000
H    -5.660000000     1.411000000     0.621000000
H    -6.808000000     2.395000000     0.568000000
O    -7.960000000    -0.872000000     1.453000000
H    -7.536000000    -0.028000000     1.295000000
H    -7.270000000    -1.518000000     1.306000000
O    -4.450000000     2.387000000    -4.386000000
H    -4.236000000     1.482000000    -4.160000000
H    -3.777000000     2.908000000    -3.950000000
O    -4.722000000    -6.398000000    -1.481000000
H    -4.165000000    -6.031000000    -0.794000000
H    -4.160000000    -7.026000000    -1.934000000
O    -3.055000000     5.597000000     0.456000000
H    -3.925000000     5.753000000     0.091000000
H    -3.105000000     4.715000000     0.826000000
O    -6.604000000    -4.804000000    -3.071000000
H    -5.756000000    -4.362000000    -3.100000000
H    -6.396000000    -5.705000000    -2.825000000
O     0.219000000    -0.422000000    -5.409000000
H     0.760000000    -1.177000000    -5.180000000
H    -0.629000000    -0.798000000    -5.645000000
O    -4.203000000     1.205000000    -0.418000000
H    -3.895000000     0.351000000    -0.719000000
H    -3.998000000     1.802000000    -1.138000000
O     0.525000000    -6.174000000    -3.554000000
H    -0.192000000    -5.564000000    -3.727000000
H     0.147000000    -6.829000000    -2.967000000
O    -0.858000000     3.094000000    -0.864000000
H    -0.657000000     2.296000000    -0.377000000
H    -0.598000000     3.805000000    -0.278000000
O     4.130000000    -0.204000000     6.223000000
H     3.710000000    -0.492000000     5.413000000
H     3.607000000     0.543000000     6.512000000
O    -2.314000000    -2.680000000     3.411000000
H    -1.466000000    -3.125000000     3.417000000
H    -2.232000000    -2.019000000     2.723000000
O     6.535000000     4.569000000     1.614000000
H     5.973000000     3.829000000     1.387000000
H     6.797000000     4.403000000     2.520000000
O    -3.341000000     3.018000000     1.528000000
H    -4.206000000     3.196000000     1.897000000
H    -3.446000000     2.192000000     1.056000000
O     0.656000000    -1.833000000     2.413000000
H     0.504000000    -0.999000000     1.968000000
H     1.095000000    -2.377000000     1.759000000
O    -6.052000000    -2.998000000     1.829000000
H    -5.757000000    -3.105000000     0.924000000
H    -6.581000000    -3.776000000     2.003000000
O     4.640000000    -0.140000000    -2.876000000
H     4.200000000    -0.985000000    -2.964000000
H     4.081000000     0.472000000    -3.356000000
O    -5.024000000    -2.711000000     4.190000000
H    -4.180000000    -2.333000000     3.944000000
H    -5.569000000    -2.609000000     3.410000000
O     1.842000000     1.500000000    -4.071000000
H     0.933000000     1.233000000    -4.201000000
H     2.310000000     1.130000000    -4.819000000
O     0.175000000     0.943000000     5.331000000
H    -0.657000000     1.133000000     4.897000000
H     0.749000000     1.664000000     5.075000000
O     1.007000000     3.575000000     5.139000000
H     0.796000000     4.392000000     5.593000000
H     1.964000000     3.558000000     5.109000000
O     5.361000000     1.912000000     1.860000000
H     5.700000000     1.141000000     2.315000000
H     5.547000000     1.746000000     0.936000000
O    -2.977000000     4.030000000    -2.423000000
H    -3.350000000     4.813000000    -2.017000000
H    -2.242000000     3.795000000    -1.857000000
O     1.698000000    -2.783000000    -5.588000000
H     1.422000000    -2.896000000    -6.497000000
H     0.966000000    -3.121000000    -5.071000000
O    -5.499000000    -2.824000000    -0.907000000
H    -4.730000000    -2.319000000    -0.642000000
H    -5.260000000    -3.195000000    -1.757000000
O    -4.240000000    -3.559000000    -3.156000000
H    -3.519000000    -3.217000000    -2.627000000
H    -3.815000000    -3.937000000    -3.926000000
O     2.710000000    -3.719000000     1.233000000
H     2.802000000    -3.606000000     0.287000000
H     2.709000000    -4.667000000     1.362000000
O    -2.391000000     1.988000000     4.695000000
H    -2.142000000     2.847000000     4.356000000
H    -3.331000000     2.060000000     4.862000000
O    -3.658000000    -0.242000000    -3.609000000
H    -3.081000000    -0.764000000    -3.052000000
H    -3.682000000    -0.716000000    -4.440000000
O    -3.374000000    -4.417000000    -5.536000000
H    -3.169000000    -5.210000000    -6.032000000
H    -3.702000000    -3.802000000    -6.193000000
O     3.640000000     5.517000000     0.251000000
H     4.180000000     6.273000000     0.482000000
H     3.500000000     5.059000000     1.081000000
O    -1.850000000    -5.067000000    -1.862000000
H    -2.020000000    -4.126000000    -1.811000000
H    -2.241000000    -5.424000000    -1.064000000
O    -0.396000000    -7.573000000    -1.407000000
H    -0.915000000    -8.313000000    -1.091000000
H    -0.903000000    -6.801000000    -1.157000000
O     3.293000000    -2.370000000    -3.493000000
H     2.840000000    -3.021000000    -2.957000000
H     2.892000000    -2.450000000    -4.358000000
O    -1.631000000     4.353000000     2.921000000
H    -1.013000000     4.470000000     2.200000000
H    -2.298000000     3.762000000     2.572000000
O    -2.404000000    -1.002000000    -6.166000000
H    -2.468000000    -0.238000000    -6.739000000
H    -3.195000000    -1.507000000    -6.353000000
O     0.259000000     4.627000000     1.044000000
H     0.029000000     5.494000000     0.710000000
H     1.198000000     4.681000000     1.224000000
O     2.275000000    -0.986000000     4.358000000
H     1.727000000    -0.742000000     5.104000000
H     1.667000000    -1.039000000     3.621000000
O    -2.977000000    -5.778000000     0.592000000
H    -3.507000000    -5.464000000     1.324000000
H    -2.162000000    -6.076000000     0.996000000
O     3.442000000     5.223000000    -2.457000000
H     3.518000000     5.373000000    -1.515000000
H     2.522000000     4.992000000    -2.590000000
O     3.880000000    -3.117000000     3.575000000
H     3.591000000    -3.396000000     2.707000000
H     3.315000000    -2.375000000     3.789000000
O    -0.916000000    -3.524000000    -4.604000000
H    -1.137000000    -3.124000000    -3.763000000
H    -1.761000000    -3.667000000    -5.031000000
O    -8.113000000    -3.297000000    -1.168000000
H    -7.187000000    -3.244000000    -0.932000000
H    -8.127000000    -3.822000000    -1.968000000
O     3.380000000     4.304000000     2.577000000
H     3.235000000     4.559000000     3.488000000
H     3.925000000     3.519000000     2.632000000
