158
-3019.34460
C    -1.477000000    -0.031000000     0.256000000
H    -2.533000000     0.141000000     0.447000000
C    -0.671000000     1.083000000     0.139000000
H    -1.028000000     2.099000000     0.286000000
C     0.677000000     1.001000000    -0.133000000
H     1.283000000     1.930000000    -0.334000000
C     1.265000000    -0.283000000    -0.306000000
H     2.342000000    -0.306000000    -0.451000000
C     0.483000000    -1.421000000    -0.198000000
H     0.975000000    -2.388000000    -0.268000000
C    -0.874000000    -1.302000000     0.126000000
C    -1.701000000    -2.561000000     0.272000000
O    -2.699000000    -2.523000000     0.937000000
O    -1.351000000    -3.579000000    -0.223000000
O    -6.079000000    -3.708000000    -2.435000000
H    -6.860000000    -3.191000000    -2.634000000
H    -6.239000000    -4.055000000    -1.557000000
O     4.959000000    -1.514000000    -2.910000000
H     4.126000000    -1.883000000    -3.203000000
H     5.187000000    -2.025000000    -2.133000000
O     0.695000000     3.819000000    -2.161000000
H     0.718000000     4.442000000    -2.887000000
H     0.117000000     4.224000000    -1.515000000
O    -3.180000000    -0.609000000     2.985000000
H    -2.829000000    -1.166000000     2.291000000
H    -3.734000000    -1.193000000     3.503000000
O    -4.289000000     4.520000000    -3.220000000
H    -3.949000000     4.159000000    -2.401000000
H    -5.190000000     4.772000000    -3.015000000
O    -7.567000000    -0.937000000     2.300000000
H    -6.865000000    -1.087000000     1.667000000
H    -7.351000000    -1.509000000     3.037000000
O     0.240000000     0.033000000    -5.108000000
H    -0.711000000    -0.073000000    -5.096000000
H     0.454000000     0.378000000    -4.241000000
O    -2.075000000    -3.380000000     4.552000000
H    -1.289000000    -3.923000000     4.489000000
H    -2.572000000    -3.586000000     3.760000000
O    -2.874000000    -5.769000000    -0.979000000
H    -2.712000000    -5.869000000    -1.917000000
H    -2.382000000    -4.985000000    -0.733000000
O     1.073000000     4.340000000     0.960000000
H     1.705000000     4.262000000     0.245000000
H     0.237000000     4.506000000     0.523000000
O    -0.512000000    -3.705000000    -5.117000000
H     0.383000000    -3.611000000    -5.443000000
H    -0.481000000    -3.356000000    -4.227000000
O    -1.543000000    -7.369000000     0.617000000
H    -1.939000000    -6.936000000    -0.139000000
H    -0.601000000    -7.323000000     0.454000000
O    -2.803000000     1.384000000    -2.419000000
H    -1.907000000     1.095000000    -2.593000000
H    -3.195000000     1.485000000    -3.287000000
O     0.466000000    -2.862000000     3.114000000
H     0.473000000    -2.037000000     3.600000000
H     0.961000000    -3.469000000     3.664000000
O    -5.316000000    -1.859000000     0.507000000
H    -5.681000000    -2.726000000     0.332000000
H    -4.376000000    -2.010000000     0.610000000
O     4.869000000     5.091000000     0.000000000
H     5.177000000     4.264000000    -0.372000000
H     4.195000000     5.391000000    -0.610000000
O    -6.877000000     3.435000000     0.233000000
H    -6.648000000     4.024000000    -0.486000000
H    -6.050000000     3.018000000     0.474000000
O     1.305000000     0.235000000     2.965000000
H     1.189000000    -0.398000000     2.256000000
H     0.606000000     0.875000000     2.832000000
O    -0.193000000     1.237000000    -2.788000000
H     0.088000000     2.136000000    -2.963000000
H     0.136000000     1.051000000    -1.909000000
O     2.777000000     4.588000000     3.640000000
H     2.226000000     4.363000000     2.890000000
H     3.650000000     4.279000000     3.397000000
O     3.059000000    -0.366000000    -5.568000000
H     2.285000000    -0.293000000    -5.010000000
H     3.014000000     0.399000000    -6.141000000
O    -5.786000000    -4.509000000     2.794000000
H    -6.308000000    -5.311000000     2.824000000
H    -4.933000000    -4.790000000     2.464000000
O    -5.822000000     0.831000000     0.512000000
H    -6.570000000     1.174000000     0.023000000
H    -5.767000000    -0.088000000     0.252000000
O    -1.076000000     5.253000000    -0.284000000
H    -1.461000000     5.505000000     0.555000000
H    -1.556000000     5.768000000    -0.932000000
O    -2.925000000     3.291000000     1.885000000
H    -2.228000000     2.984000000     2.464000000
H    -3.719000000     2.877000000     2.224000000
O    -3.947000000     2.998000000    -0.826000000
H    -3.475000000     2.346000000    -1.345000000
H    -3.446000000     3.066000000    -0.014000000
O    -1.338000000     1.938000000     3.631000000
H    -1.881000000     1.176000000     3.834000000
H    -1.107000000     2.302000000     4.486000000
O    -4.795000000     1.490000000     2.891000000
H    -4.212000000     0.748000000     3.051000000
H    -5.034000000     1.413000000     1.968000000
O     1.125000000    -5.519000000    -2.416000000
H     2.046000000    -5.370000000    -2.203000000
H     1.140000000    -6.218000000    -3.070000000
O     2.386000000     5.822000000    -4.094000000
H     2.712000000     5.698000000    -4.985000000
H     1.495000000     6.152000000    -4.209000000
O     0.351000000    -4.841000000     1.362000000
H     0.354000000    -4.243000000     2.109000000
H    -0.304000000    -4.478000000     0.766000000
O     2.597000000    -3.038000000    -3.262000000
H     2.028000000    -2.995000000    -4.031000000
H     2.046000000    -3.413000000    -2.576000000
O     5.192000000     2.759000000    -0.720000000
H     4.353000000     2.578000000    -1.145000000
H     5.577000000     1.895000000    -0.573000000
O     5.060000000    -1.796000000     1.536000000
H     5.460000000    -0.960000000     1.297000000
H     5.148000000    -2.337000000     0.752000000
O    -3.122000000    -5.254000000     2.109000000
H    -2.586000000    -5.857000000     1.594000000
H    -2.748000000    -4.390000000     1.934000000
O     1.581000000     7.159000000     1.863000000
H     1.443000000     7.221000000     2.808000000
H     1.033000000     6.423000000     1.589000000
O    -1.919000000    -6.146000000    -3.628000000
H    -1.718000000    -5.443000000    -4.245000000
H    -1.105000000    -6.279000000    -3.142000000
O     3.047000000     2.361000000    -2.846000000
H     3.195000000     2.310000000    -3.790000000
H     2.191000000     2.781000000    -2.761000000
O    -3.007000000     0.206000000     5.846000000
H    -3.049000000    -0.127000000     4.949000000
H    -3.240000000    -0.546000000     6.392000000
O     2.723000000     5.929000000    -1.347000000
H     2.347000000     6.796000000    -1.194000000
H     2.754000000     5.847000000    -2.300000000
O     2.888000000    -4.996000000     0.083000000
H     2.068000000    -4.571000000     0.334000000
H     3.356000000    -5.121000000     0.909000000
O     4.411000000     0.541000000     3.321000000
H     4.212000000    -0.375000000     3.125000000
H     3.587000000     1.003000000     3.171000000
O    -5.271000000    -7.225000000     0.096000000
H    -5.070000000    -8.110000000     0.399000000
H    -4.416000000    -6.825000000    -0.062000000
O     6.748000000     2.864000000    -3.277000000
H     6.263000000     2.911000000    -2.454000000
H     6.406000000     3.589000000    -3.799000000
O     6.278000000     0.094000000    -0.208000000
H     7.225000000     0.227000000    -0.161000000
H     6.138000000    -0.340000000    -1.050000000
O     5.240000000     3.631000000     2.642000000
H     5.248000000     3.853000000     1.710000000
H     5.528000000     2.719000000     2.673000000
O    -0.562000000    -2.886000000    -2.625000000
H    -0.226000000    -2.166000000    -2.092000000
H    -0.778000000    -3.572000000    -1.993000000
O    -3.877000000    -3.163000000    -3.699000000
H    -3.216000000    -3.422000000    -3.057000000
H    -4.712000000    -3.303000000    -3.253000000
