158
-3062.28618
C    -1.453000000    -0.052000000     0.235000000
H    -2.515000000     0.162000000     0.325000000
C    -0.525000000     0.586000000     1.025000000
H    -0.908000000     1.137000000     1.881000000
C     0.825000000     0.528000000     0.728000000
H     1.529000000     0.964000000     1.473000000
C     1.241000000    -0.194000000    -0.376000000
H     2.286000000    -0.383000000    -0.607000000
C     0.292000000    -0.880000000    -1.138000000
H     0.585000000    -1.459000000    -2.010000000
C    -1.065000000    -0.763000000    -0.943000000
C    -2.069000000    -1.365000000    -1.839000000
O    -3.143000000    -0.826000000    -1.827000000
O    -1.706000000    -2.191000000    -2.708000000
O     3.170000000     4.717000000    -2.483000000
H     3.367000000     4.561000000    -1.560000000
H     3.510000000     3.944000000    -2.934000000
O    -6.452000000    -1.177000000    -4.031000000
H    -5.804000000    -1.876000000    -3.955000000
H    -6.247000000    -0.749000000    -4.863000000
O     5.218000000     5.543000000    -0.166000000
H     5.322000000     6.249000000     0.472000000
H     5.449000000     4.748000000     0.316000000
O     4.364000000    -2.029000000    -0.871000000
H     3.863000000    -2.566000000    -1.485000000
H     4.697000000    -1.305000000    -1.402000000
O    -0.344000000     1.915000000    -4.359000000
H    -1.063000000     1.299000000    -4.220000000
H    -0.483000000     2.249000000    -5.245000000
O     3.868000000     0.364000000     6.628000000
H     3.918000000    -0.214000000     7.389000000
H     3.199000000     1.008000000     6.860000000
O    -6.744000000    -1.172000000     1.200000000
H    -6.550000000    -1.030000000     0.273000000
H    -6.534000000    -0.338000000     1.620000000
O    -3.990000000     3.157000000    -4.239000000
H    -4.253000000     3.032000000    -5.151000000
H    -3.373000000     2.445000000    -4.069000000
O    -6.309000000    -3.897000000    -1.472000000
H    -6.171000000    -3.487000000    -2.326000000
H    -5.428000000    -4.092000000    -1.155000000
O     2.202000000     6.473000000     1.825000000
H     1.911000000     7.108000000     1.170000000
H     2.298000000     6.985000000     2.628000000
O     2.382000000    -0.983000000    -5.975000000
H     1.765000000    -0.605000000    -5.349000000
H     2.507000000    -0.298000000    -6.632000000
O    -5.757000000    -0.199000000    -1.284000000
H    -4.837000000    -0.451000000    -1.204000000
H    -6.021000000    -0.526000000    -2.144000000
O     6.241000000     2.542000000    -2.173000000
H     5.589000000     2.267000000    -1.529000000
H     7.076000000     2.246000000    -1.809000000
O    -0.426000000     2.625000000    -1.699000000
H    -0.136000000     2.391000000    -2.581000000
H    -0.164000000     1.881000000    -1.156000000
O     3.678000000    -0.507000000     3.502000000
H     2.785000000    -0.840000000     3.588000000
H     4.170000000    -0.960000000     4.187000000
O    -4.796000000    -3.016000000     2.801000000
H    -5.506000000    -2.504000000     2.415000000
H    -4.030000000    -2.802000000     2.268000000
O     5.674000000     3.729000000     1.784000000
H     4.832000000     3.399000000     2.100000000
H     6.120000000     4.039000000     2.573000000
O    -4.501000000     2.028000000     0.388000000
H    -3.948000000     2.367000000    -0.316000000
H    -5.137000000     1.468000000    -0.056000000
O    -0.629000000    -4.521000000     0.133000000
H     0.115000000    -4.195000000    -0.373000000
H    -1.301000000    -4.706000000    -0.522000000
O     5.880000000    -4.022000000     0.345000000
H     6.160000000    -3.687000000     1.196000000
H     5.307000000    -3.340000000    -0.004000000
O     5.313000000     2.488000000     5.051000000
H     5.990000000     2.558000000     5.723000000
H     4.828000000     1.696000000     5.280000000
O     2.717000000    -3.166000000    -2.731000000
H     2.949000000    -3.587000000    -3.559000000
H     2.282000000    -2.353000000    -2.989000000
O     3.122000000     0.359000000    -2.910000000
H     3.092000000     0.754000000    -2.038000000
H     3.496000000     1.040000000    -3.469000000
O    -0.723000000     0.124000000     5.907000000
H    -1.640000000    -0.096000000     5.744000000
H    -0.637000000     1.030000000     5.610000000
O     1.128000000     4.630000000     3.523000000
H     0.258000000     4.570000000     3.128000000
H     1.606000000     5.236000000     2.957000000
O     4.417000000     0.008000000     0.884000000
H     4.157000000    -0.138000000     1.794000000
H     4.185000000    -0.806000000     0.436000000
O    -2.932000000     3.479000000    -1.492000000
H    -2.025000000     3.222000000    -1.656000000
H    -3.359000000     3.412000000    -2.346000000
O     1.543000000    -4.067000000    -5.965000000
H     1.769000000    -3.496000000    -6.700000000
H     0.897000000    -3.569000000    -5.465000000
O    -2.501000000    -2.731000000     1.524000000
H    -1.993000000    -1.925000000     1.610000000
H    -1.858000000    -3.395000000     1.275000000
O    -0.619000000     2.915000000     5.218000000
H     0.102000000     3.411000000     4.832000000
H    -0.681000000     3.240000000     6.116000000
O    -0.367000000     5.139000000    -0.798000000
H    -0.514000000     4.198000000    -0.892000000
H     0.492000000     5.288000000    -1.193000000
O    -4.532000000    -3.038000000    -3.288000000
H    -3.857000000    -2.586000000    -2.782000000
H    -4.081000000    -3.336000000    -4.077000000
O     1.926000000    -4.451000000    -0.466000000
H     1.977000000    -5.265000000    -0.967000000
H     2.289000000    -3.787000000    -1.051000000
O    -3.509000000    -0.282000000     5.125000000
H    -3.366000000     0.317000000     4.392000000
H    -4.300000000     0.046000000     5.551000000
O    -3.161000000     0.705000000    -4.058000000
H    -3.348000000     0.070000000    -3.366000000
H    -3.398000000     0.253000000    -4.868000000
O    -3.060000000    -4.411000000    -5.042000000
H    -2.158000000    -4.110000000    -5.152000000
H    -3.015000000    -5.357000000    -5.184000000
O     1.971000000     3.968000000     0.733000000
H     2.269000000     4.848000000     0.963000000
H     1.947000000     3.498000000     1.567000000
O    -2.044000000    -4.793000000    -1.956000000
H    -1.841000000    -4.024000000    -2.488000000
H    -2.999000000    -4.790000000    -1.885000000
O     0.323000000    -6.297000000    -2.688000000
H     0.303000000    -6.095000000    -3.624000000
H    -0.301000000    -5.686000000    -2.297000000
O    -3.250000000     1.705000000     3.206000000
H    -2.678000000     2.473000000     3.208000000
H    -3.789000000     1.810000000     2.423000000
O    -2.617000000    -1.446000000    -6.131000000
H    -2.349000000    -1.301000000    -7.038000000
H    -3.243000000    -2.170000000    -6.180000000
O    -1.105000000     4.402000000     2.258000000
H    -0.899000000     4.259000000     1.334000000
H    -1.656000000     5.185000000     2.263000000
O     1.011000000    -1.168000000     3.335000000
H     0.278000000    -1.098000000     3.946000000
H     0.666000000    -0.835000000     2.507000000
O     7.108000000     0.468000000     1.505000000
H     7.103000000     0.274000000     2.443000000
H     6.210000000     0.295000000     1.221000000
O     3.767000000     2.188000000    -0.745000000
H     3.186000000     2.721000000    -0.202000000
H     4.197000000     1.597000000    -0.127000000
O     2.242000000    -4.021000000     2.393000000
H     2.200000000    -4.272000000     1.470000000
H     1.731000000    -3.213000000     2.444000000
O    -0.583000000    -2.981000000    -4.902000000
H    -1.140000000    -2.517000000    -5.526000000
H    -0.793000000    -2.588000000    -4.055000000
O     3.333000000     3.058000000     2.944000000
H     3.674000000     2.600000000     3.712000000
H     2.584000000     3.554000000     3.274000000
