158
-3040.82554
C    -1.370000000     0.511000000    -0.041000000
H    -2.325000000     1.027000000     0.012000000
C    -0.343000000     0.927000000     0.810000000
H    -0.498000000     1.670000000     1.588000000
C     0.947000000     0.399000000     0.688000000
H     1.801000000     0.657000000     1.285000000
C     1.159000000    -0.608000000    -0.250000000
H     2.149000000    -1.055000000    -0.294000000
C     0.112000000    -1.139000000    -1.009000000
H     0.326000000    -1.966000000    -1.681000000
C    -1.196000000    -0.586000000    -0.924000000
C    -2.375000000    -1.089000000    -1.676000000
O    -3.462000000    -0.521000000    -1.538000000
O    -2.286000000    -2.011000000    -2.419000000
O    -7.000000000    -1.790000000    -3.220000000
H    -6.108000000    -1.488000000    -3.392000000
H    -6.895000000    -2.695000000    -2.928000000
O     4.676000000     5.276000000     2.249000000
H     5.190000000     4.587000000     1.828000000
H     4.374000000     4.883000000     3.068000000
O     5.359000000    -0.905000000     3.400000000
H     5.981000000    -0.248000000     3.086000000
H     4.774000000    -0.422000000     3.984000000
O     6.742000000     1.632000000     2.882000000
H     6.953000000     1.899000000     1.987000000
H     6.788000000     2.442000000     3.391000000
O     2.790000000    -4.309000000    -3.455000000
H     3.132000000    -4.946000000    -2.828000000
H     1.841000000    -4.343000000    -3.337000000
O    -0.201000000     3.830000000    -1.512000000
H    -1.058000000     3.918000000    -1.929000000
H     0.041000000     2.915000000    -1.656000000
O     3.342000000    -0.644000000    -5.099000000
H     2.548000000    -1.177000000    -5.139000000
H     3.034000000     0.254000000    -5.221000000
O     2.282000000     1.567000000     7.399000000
H     2.009000000     1.178000000     6.568000000
H     2.734000000     2.373000000     7.149000000
O    -5.082000000    -2.340000000    -7.015000000
H    -4.429000000    -2.072000000    -6.369000000
H    -5.822000000    -1.751000000    -6.865000000
O    -2.598000000    -0.324000000    -6.110000000
H    -2.001000000     0.327000000    -5.741000000
H    -2.791000000    -0.001000000    -6.990000000
O    -4.567000000    -2.853000000     1.873000000
H    -3.713000000    -3.060000000     1.494000000
H    -4.372000000    -2.243000000     2.584000000
O    -1.526000000    -4.807000000    -6.281000000
H    -1.178000000    -4.131000000    -5.700000000
H    -2.419000000    -4.522000000    -6.472000000
O    -3.986000000     2.190000000    -2.010000000
H    -3.894000000     1.239000000    -1.962000000
H    -3.874000000     2.395000000    -2.939000000
O    -1.050000000     1.248000000    -4.390000000
H    -1.560000000     2.028000000    -4.175000000
H    -0.428000000     1.161000000    -3.668000000
O     1.488000000     0.046000000     5.271000000
H     1.514000000    -0.906000000     5.171000000
H     0.894000000     0.343000000     4.581000000
O     7.576000000    -1.283000000     1.080000000
H     7.774000000    -2.074000000     0.579000000
H     6.767000000    -0.950000000     0.691000000
O    -4.473000000    -0.091000000     0.771000000
H    -4.578000000    -1.029000000     0.930000000
H    -3.970000000    -0.041000000    -0.042000000
O    -0.526000000    -4.228000000     2.201000000
H    -1.230000000    -4.809000000     1.912000000
H     0.219000000    -4.810000000     2.347000000
O    -6.807000000    -3.707000000     0.522000000
H    -6.952000000    -3.485000000    -0.397000000
H    -6.010000000    -3.234000000     0.761000000
O     4.316000000     0.613000000    -1.119000000
H     4.268000000     0.246000000    -0.236000000
H     4.288000000    -0.149000000    -1.697000000
O    -2.506000000    -1.765000000     4.857000000
H    -3.429000000    -1.775000000     4.602000000
H    -2.028000000    -1.763000000     4.028000000
O     0.947000000     1.588000000    -2.448000000
H     1.845000000     1.527000000    -2.774000000
H     0.948000000     1.067000000    -1.645000000
O    -2.017000000     2.263000000     4.569000000
H    -2.796000000     2.020000000     4.069000000
H    -1.576000000     2.915000000     4.024000000
O     4.971000000     3.042000000    -1.784000000
H     4.417000000     3.596000000    -1.235000000
H     4.675000000     2.151000000    -1.601000000
O     6.791000000     0.028000000    -2.076000000
H     6.176000000     0.294000000    -1.392000000
H     6.432000000    -0.792000000    -2.415000000
O    -3.935000000    -6.551000000    -4.217000000
H    -3.486000000    -5.740000000    -3.978000000
H    -3.691000000    -6.700000000    -5.130000000
O     6.758000000     2.734000000     0.353000000
H     6.233000000     3.097000000    -0.361000000
H     7.628000000     2.613000000    -0.028000000
O    -0.558000000     4.253000000     3.268000000
H    -0.962000000     4.797000000     2.592000000
H    -0.536000000     4.813000000     4.044000000
O     1.181000000    -1.992000000    -5.981000000
H     0.299000000    -2.133000000    -5.637000000
H     1.102000000    -1.215000000    -6.534000000
O    -4.325000000    -5.361000000    -1.157000000
H    -3.738000000    -4.616000000    -1.029000000
H    -3.744000000    -6.122000000    -1.185000000
O    -4.100000000     4.078000000     0.196000000
H    -4.147000000     3.430000000    -0.507000000
H    -4.700000000     4.772000000    -0.079000000
O    -3.568000000    -3.804000000    -3.821000000
H    -2.974000000    -3.347000000    -3.225000000
H    -4.313000000    -3.210000000    -3.919000000
O     4.690000000    -4.051000000     0.274000000
H     4.796000000    -4.970000000     0.030000000
H     3.977000000    -4.054000000     0.914000000
O    -4.647000000    -0.564000000     3.815000000
H    -4.411000000     0.205000000     3.297000000
H    -5.541000000    -0.390000000     4.109000000
O    -4.617000000    -0.634000000    -3.952000000
H    -3.997000000    -0.877000000    -3.264000000
H    -4.068000000    -0.437000000    -4.711000000
O    -1.145000000    -2.353000000    -4.906000000
H    -1.653000000    -1.707000000    -5.397000000
H    -1.350000000    -2.172000000    -3.989000000
O     1.923000000     4.115000000     2.026000000
H     1.062000000     4.055000000     2.439000000
H     2.533000000     3.812000000     2.699000000
O    -2.114000000    -3.686000000    -0.179000000
H    -1.351000000    -3.621000000     0.395000000
H    -1.924000000    -3.083000000    -0.898000000
O     4.749000000    -1.967000000    -2.387000000
H     4.550000000    -2.676000000    -1.776000000
H     4.314000000    -2.222000000    -3.200000000
O    -4.556000000     2.024000000     2.444000000
H    -4.645000000     2.906000000     2.084000000
H    -4.712000000     1.444000000     1.699000000
O    -1.636000000     4.889000000     0.814000000
H    -2.516000000     4.552000000     0.645000000
H    -1.075000000     4.413000000     0.201000000
O     1.566000000    -2.837000000     4.133000000
H     2.328000000    -3.233000000     3.710000000
H     0.828000000    -3.378000000     3.852000000
O    -1.393000000    -1.760000000     2.383000000
H    -1.038000000    -2.643000000     2.487000000
H    -0.977000000    -1.427000000     1.588000000
O     4.100000000     0.664000000     5.516000000
H     4.543000000     0.681000000     6.364000000
H     3.283000000     0.194000000     5.681000000
O     2.713000000     4.601000000    -0.590000000
H     2.582000000     4.564000000     0.358000000
H     1.847000000     4.424000000    -0.958000000
O     4.746000000    -1.331000000     0.836000000
H     4.572000000    -2.251000000     0.636000000
H     4.996000000    -1.329000000     1.760000000
O    -0.089000000    -4.606000000    -2.765000000
H    -0.991000000    -4.298000000    -2.847000000
H    -0.131000000    -5.297000000    -2.104000000
O     3.180000000     3.408000000     4.329000000
H     3.389000000     3.617000000     5.239000000
H     3.204000000     2.451000000     4.291000000
