158
-3025.94222
C    -0.437000000    -0.645000000     1.230000000
H    -0.901000000    -1.088000000     2.107000000
C    -0.690000000     0.711000000     0.957000000
H    -1.215000000     1.329000000     1.680000000
C    -0.277000000     1.230000000    -0.295000000
H    -0.367000000     2.258000000    -0.565000000
C     0.361000000     0.343000000    -1.123000000
H     0.589000000     0.685000000    -2.129000000
C     0.667000000    -0.981000000    -0.792000000
H     1.134000000    -1.635000000    -1.524000000
C     0.318000000    -1.498000000     0.444000000
C     0.635000000    -2.958000000     0.833000000
O     1.462000000    -3.533000000     0.153000000
O     0.150000000    -3.472000000     1.855000000
O    -1.776000000    -2.606000000    -3.243000000
H    -0.821000000    -2.599000000    -3.297000000
H    -1.985000000    -1.920000000    -2.609000000
O     0.862000000     0.347000000     6.038000000
H     1.501000000    -0.217000000     6.475000000
H     1.242000000     0.517000000     5.177000000
O     2.184000000     6.077000000     0.755000000
H     2.834000000     6.649000000     1.162000000
H     2.678000000     5.298000000     0.497000000
O    -4.419000000     4.616000000     2.138000000
H    -4.078000000     4.773000000     1.258000000
H    -5.247000000     4.156000000     1.996000000
O    -1.784000000     6.234000000     2.855000000
H    -0.892000000     6.103000000     3.177000000
H    -1.990000000     5.428000000     2.382000000
O    -4.356000000    -4.975000000     1.712000000
H    -4.093000000    -5.356000000     0.875000000
H    -3.534000000    -4.717000000     2.128000000
O     3.451000000    -7.488000000     1.289000000
H     3.005000000    -8.333000000     1.340000000
H     4.167000000    -7.632000000     0.670000000
O     3.577000000    -3.949000000    -3.146000000
H     3.830000000    -4.872000000    -3.168000000
H     3.673000000    -3.652000000    -4.051000000
O    -1.269000000    -4.997000000     5.845000000
H    -0.901000000    -5.854000000     6.058000000
H    -0.840000000    -4.395000000     6.453000000
O    -2.678000000     2.188000000     4.766000000
H    -3.231000000     1.959000000     4.019000000
H    -2.915000000     1.553000000     5.442000000
O     0.188000000     2.801000000     3.364000000
H    -0.610000000     2.280000000     3.449000000
H     0.897000000     2.184000000     3.547000000
O     0.821000000    -3.507000000    -4.014000000
H     0.402000000    -3.585000000    -4.871000000
H     1.754000000    -3.622000000    -4.191000000
O     2.625000000     1.089000000     3.905000000
H     3.450000000     1.565000000     3.813000000
H     2.579000000     0.535000000     3.125000000
O     0.359000000    -2.629000000     4.475000000
H     0.363000000    -2.871000000     3.549000000
H     1.077000000    -3.134000000     4.858000000
O     1.717000000     2.692000000    -4.191000000
H     1.787000000     1.783000000    -3.900000000
H     0.785000000     2.814000000    -4.374000000
O    -1.614000000     3.384000000    -5.816000000
H    -2.331000000     4.003000000    -5.954000000
H    -1.961000000     2.752000000    -5.186000000
O    -2.081000000    -4.597000000     2.912000000
H    -1.443000000    -3.979000000     2.555000000
H    -1.967000000    -4.538000000     3.861000000
O     4.019000000     2.175000000    -2.065000000
H     3.716000000     1.649000000    -1.325000000
H     4.111000000     1.549000000    -2.782000000
O     2.245000000    -7.855000000    -1.502000000
H     1.722000000    -7.053000000    -1.531000000
H     1.609000000    -8.549000000    -1.325000000
O    -2.379000000     1.824000000    -3.758000000
H    -2.368000000     1.098000000    -4.382000000
H    -3.124000000     1.636000000    -3.186000000
O    -3.331000000    -2.434000000     0.003000000
H    -3.923000000    -3.065000000    -0.406000000
H    -3.758000000    -2.204000000     0.828000000
O     0.875000000     5.305000000     2.960000000
H     1.232000000     5.377000000     2.075000000
H     0.698000000     4.370000000     3.071000000
O     5.534000000    -1.075000000    -1.195000000
H     5.961000000    -0.351000000    -0.736000000
H     6.124000000    -1.819000000    -1.071000000
O    -1.627000000    -0.884000000     5.448000000
H    -0.847000000    -0.392000000     5.704000000
H    -1.285000000    -1.658000000     5.000000000
O    -4.671000000     1.088000000     2.763000000
H    -5.261000000     1.639000000     2.247000000
H    -4.659000000     0.251000000     2.299000000
O    -1.077000000     8.660000000    -0.123000000
H    -0.802000000     7.780000000    -0.378000000
H    -1.301000000     9.090000000    -0.948000000
O     0.656000000    -6.253000000     1.807000000
H     1.520000000    -6.332000000     1.403000000
H     0.522000000    -5.310000000     1.904000000
O     0.533000000    -5.407000000    -1.723000000
H     1.072000000    -4.929000000    -1.093000000
H     0.516000000    -4.846000000    -2.498000000
O    -3.202000000     5.817000000    -0.155000000
H    -2.329000000     6.092000000     0.124000000
H    -3.195000000     5.927000000    -1.106000000
O    -0.513000000     2.732000000     6.338000000
H    -0.022000000     1.932000000     6.153000000
H    -1.247000000     2.710000000     5.724000000
O     3.446000000    -1.014000000     2.190000000
H     3.217000000    -1.906000000     2.450000000
H     4.312000000    -0.867000000     2.570000000
O    -0.275000000     0.036000000    -5.535000000
H    -1.194000000    -0.098000000    -5.767000000
H     0.164000000     0.182000000    -6.373000000
O     3.896000000    -4.013000000    -0.370000000
H     2.984000000    -3.736000000    -0.291000000
H     4.103000000    -3.894000000    -1.297000000
O     3.621000000     0.392000000    -0.090000000
H     3.861000000    -0.277000000    -0.731000000
H     3.299000000    -0.103000000     0.663000000
O    -0.323000000    -8.107000000     3.548000000
H     0.029000000    -7.500000000     2.897000000
H    -0.039000000    -8.971000000     3.249000000
O     3.629000000     3.873000000     0.063000000
H     4.364000000     3.358000000    -0.270000000
H     2.916000000     3.698000000    -0.552000000
O    -1.782000000    -5.638000000    -0.427000000
H    -1.619000000    -5.225000000     0.421000000
H    -0.954000000    -5.551000000    -0.899000000
O    -0.859000000     3.952000000    -2.405000000
H    -1.128000000     3.304000000    -3.055000000
H    -1.619000000     4.526000000    -2.310000000
O    -5.406000000    -1.483000000     1.774000000
H    -6.254000000    -1.362000000     1.346000000
H    -5.611000000    -1.950000000     2.585000000
O     1.691000000     4.244000000    -1.773000000
H     0.813000000     4.075000000    -2.114000000
H     2.232000000     3.550000000    -2.149000000
O    -0.349000000     6.020000000    -0.221000000
H     0.404000000     6.092000000     0.366000000
H    -0.045000000     5.457000000    -0.933000000
O     5.091000000    -2.833000000     4.032000000
H     4.186000000    -3.053000000     3.813000000
H     5.364000000    -3.520000000     4.641000000
O     2.967000000    -3.817000000     2.616000000
H     3.690000000    -4.320000000     2.243000000
H     2.292000000    -3.829000000     1.937000000
O    -2.715000000    -0.438000000    -1.706000000
H    -2.906000000    -0.824000000    -0.852000000
H    -1.916000000     0.071000000    -1.566000000
O    -2.957000000     5.937000000    -2.939000000
H    -2.597000000     6.553000000    -3.576000000
H    -3.735000000     5.578000000    -3.366000000
O     5.391000000    -6.199000000    -1.046000000
H     5.044000000    -6.313000000    -1.931000000
H     5.189000000    -5.290000000    -0.825000000
O     4.258000000    -0.072000000    -3.516000000
H     4.680000000    -0.513000000    -2.779000000
H     3.476000000    -0.595000000    -3.692000000
O     1.855000000    -0.949000000    -4.381000000
H     1.070000000    -0.818000000    -4.913000000
H     1.604000000    -1.618000000    -3.744000000
