158
-3029.42768
C    -0.169000000    -1.507000000    -0.259000000
H    -0.341000000    -2.579000000    -0.297000000
C     0.104000000    -0.883000000     0.959000000
H     0.378000000    -1.504000000     1.807000000
C     0.105000000     0.504000000     1.149000000
H     0.401000000     0.873000000     2.129000000
C    -0.037000000     1.255000000     0.067000000
H     0.209000000     2.309000000     0.159000000
C    -0.180000000     0.689000000    -1.213000000
H    -0.241000000     1.344000000    -2.079000000
C    -0.288000000    -0.690000000    -1.441000000
C    -0.546000000    -1.195000000    -2.805000000
O    -0.842000000    -2.330000000    -3.002000000
O    -0.260000000    -0.502000000    -3.821000000
O     4.973000000    -3.293000000    -0.287000000
H     4.390000000    -2.577000000    -0.032000000
H     4.410000000    -4.067000000    -0.296000000
O    -0.916000000    -1.525000000     4.398000000
H    -1.249000000    -0.628000000     4.404000000
H    -1.603000000    -2.039000000     4.822000000
O     3.413000000     0.863000000    -2.141000000
H     2.841000000     1.625000000    -2.227000000
H     4.277000000     1.182000000    -2.402000000
O     3.810000000    -4.677000000     3.363000000
H     3.364000000    -4.183000000     4.051000000
H     4.725000000    -4.403000000     3.426000000
O     2.789000000    -5.010000000    -0.196000000
H     2.360000000    -4.983000000     0.659000000
H     2.868000000    -5.942000000    -0.395000000
O    -0.627000000     3.524000000     6.169000000
H    -0.812000000     4.342000000     5.707000000
H    -0.969000000     3.666000000     7.052000000
O     4.855000000     2.039000000     2.289000000
H     4.681000000     1.126000000     2.061000000
H     5.239000000     2.414000000     1.497000000
O    -3.049000000     1.017000000     1.590000000
H    -2.291000000     0.770000000     1.061000000
H    -2.893000000     1.933000000     1.819000000
O    -2.850000000     3.859000000    -2.218000000
H    -2.760000000     3.243000000    -2.945000000
H    -2.603000000     3.353000000    -1.444000000
O    -1.530000000    -4.616000000     2.671000000
H    -1.350000000    -3.893000000     3.273000000
H    -2.001000000    -5.258000000     3.202000000
O    -3.127000000    -2.677000000     1.096000000
H    -2.804000000    -3.205000000     0.367000000
H    -2.849000000    -3.152000000     1.879000000
O    -1.553000000     6.078000000     1.935000000
H    -1.251000000     5.960000000     1.034000000
H    -2.103000000     6.861000000     1.902000000
O    -1.678000000    -4.240000000    -1.448000000
H    -1.658000000    -3.530000000    -2.091000000
H    -0.815000000    -4.649000000    -1.516000000
O    -1.019000000    -1.079000000    -6.090000000
H    -0.604000000    -1.028000000    -5.229000000
H    -1.746000000    -1.690000000    -5.969000000
O    -0.044000000    -6.223000000     1.078000000
H    -0.514000000    -5.539000000     1.555000000
H     0.740000000    -6.384000000     1.601000000
O    -3.642000000    -5.833000000    -0.225000000
H    -4.353000000    -5.611000000    -0.827000000
H    -2.888000000    -5.344000000    -0.556000000
O    -2.909000000     1.050000000    -6.532000000
H    -2.564000000     0.204000000    -6.816000000
H    -2.788000000     1.053000000    -5.583000000
O    -5.301000000    -3.154000000    -3.265000000
H    -6.185000000    -3.069000000    -3.622000000
H    -4.762000000    -3.404000000    -4.016000000
O    -1.079000000     5.806000000    -0.987000000
H    -1.428000000     5.315000000    -1.730000000
H    -1.239000000     6.723000000    -1.210000000
O    -0.407000000    -7.082000000    -1.841000000
H    -0.329000000    -6.618000000    -1.008000000
H    -0.255000000    -8.001000000    -1.619000000
O    -3.571000000    -0.676000000    -2.163000000
H    -3.772000000    -0.777000000    -1.232000000
H    -4.021000000    -1.407000000    -2.586000000
O    -5.171000000    -0.306000000     3.885000000
H    -5.297000000    -1.226000000     4.117000000
H    -4.398000000    -0.305000000     3.320000000
O    -1.029000000    -3.748000000    -7.275000000
H    -1.709000000    -4.188000000    -6.765000000
H    -0.380000000    -3.478000000    -6.626000000
O    -4.702000000    -0.621000000     0.288000000
H    -4.361000000    -1.500000000     0.453000000
H    -4.199000000    -0.055000000     0.873000000
O    -3.457000000     1.335000000     6.578000000
H    -4.219000000     1.558000000     6.043000000
H    -2.706000000     1.517000000     6.012000000
O     1.683000000     6.203000000     5.071000000
H     1.917000000     5.779000000     4.246000000
H     0.737000000     6.338000000     5.011000000
O     1.692000000    -3.401000000     5.287000000
H     1.160000000    -4.186000000     5.419000000
H     1.070000000    -2.677000000     5.349000000
O     0.756000000    -3.618000000    -4.987000000
H     1.514000000    -3.032000000    -4.993000000
H     0.117000000    -3.177000000    -4.427000000
O     3.284000000     2.812000000     4.669000000
H     3.753000000     2.247000000     4.054000000
H     2.806000000     3.426000000     4.112000000
O    -4.904000000    -1.622000000    -6.273000000
H    -4.217000000    -1.918000000    -5.676000000
H    -4.634000000    -1.952000000    -7.130000000
O    -2.808000000    -2.865000000    -4.635000000
H    -2.908000000    -3.805000000    -4.783000000
H    -2.212000000    -2.801000000    -3.889000000
O     4.208000000    -0.030000000     6.268000000
H     4.891000000    -0.108000000     5.602000000
H     4.506000000     0.682000000     6.834000000
O     1.603000000     5.259000000     0.040000000
H     1.702000000     4.573000000    -0.621000000
H     0.751000000     5.652000000    -0.149000000
O     2.576000000     5.750000000     2.477000000
H     3.464000000     6.080000000     2.336000000
H     2.209000000     5.666000000     1.597000000
O     2.151000000     3.596000000    -2.132000000
H     1.907000000     4.202000000    -2.832000000
H     3.085000000     3.751000000    -1.996000000
O    -2.373000000     3.517000000     2.554000000
H    -2.969000000     4.017000000     3.112000000
H    -1.796000000     4.176000000     2.168000000
O    -2.241000000     1.157000000    -4.039000000
H    -2.650000000     0.764000000    -3.268000000
H    -1.487000000     0.598000000    -4.222000000
O    -0.776000000     3.192000000    -6.676000000
H    -0.922000000     2.627000000    -5.917000000
H    -0.961000000     2.631000000    -7.430000000
O     1.175000000     0.606000000    -6.824000000
H     0.453000000    -0.022000000    -6.839000000
H     1.477000000     0.602000000    -5.915000000
O    -1.607000000     1.430000000     4.545000000
H    -2.077000000     1.817000000     3.807000000
H    -1.195000000     2.175000000     4.983000000
O     5.373000000    -0.769000000     1.821000000
H     5.802000000    -1.613000000     1.681000000
H     4.576000000    -0.814000000     1.293000000
O     1.253000000    -6.157000000    -5.583000000
H     1.066000000    -5.256000000    -5.319000000
H     1.696000000    -6.073000000    -6.427000000
O     3.468000000    -1.028000000    -0.133000000
H     2.533000000    -0.880000000     0.007000000
H     3.697000000    -0.446000000    -0.858000000
O     2.202000000    -0.189000000    -4.256000000
H     2.619000000     0.008000000    -3.417000000
H     1.287000000    -0.361000000    -4.035000000
O     1.620000000     2.097000000     6.730000000
H     0.900000000     2.726000000     6.673000000
H     2.221000000     2.357000000     6.032000000
O     1.518000000    -0.518000000     6.980000000
H     2.420000000    -0.777000000     6.791000000
H     1.484000000     0.412000000     6.756000000
O     1.702000000     4.643000000    -4.721000000
H     1.910000000     5.534000000    -5.004000000
H     0.754000000     4.572000000    -4.833000000
O     3.314000000    -2.418000000    -4.885000000
H     3.178000000    -1.480000000    -4.754000000
H     4.028000000    -2.642000000    -4.288000000
