158
-3019.28002
C    -0.950000000    -1.011000000    -0.617000000
H    -1.584000000    -1.668000000    -1.206000000
C    -1.266000000     0.319000000    -0.299000000
H    -2.194000000     0.714000000    -0.702000000
C    -0.326000000     1.123000000     0.330000000
H    -0.387000000     2.228000000     0.501000000
C     0.897000000     0.617000000     0.754000000
H     1.602000000     1.322000000     1.188000000
C     1.232000000    -0.712000000     0.468000000
H     2.214000000    -1.079000000     0.756000000
C     0.270000000    -1.520000000    -0.130000000
C     0.772000000    -2.767000000    -0.844000000
O    -0.027000000    -3.510000000    -1.382000000
O     1.946000000    -3.089000000    -0.745000000
O     0.716000000     4.953000000     1.173000000
H     0.521000000     5.625000000     0.519000000
H     1.672000000     4.904000000     1.188000000
O    -4.813000000    -0.396000000    -1.952000000
H    -4.748000000     0.432000000    -2.428000000
H    -5.754000000    -0.555000000    -1.875000000
O     0.677000000     2.568000000     5.666000000
H     0.957000000     3.048000000     6.446000000
H    -0.035000000     3.095000000     5.303000000
O     1.164000000     6.349000000    -1.062000000
H     1.550000000     6.517000000    -1.921000000
H     1.641000000     6.929000000    -0.468000000
O    -4.443000000    -3.978000000    -2.147000000
H    -4.189000000    -3.368000000    -2.840000000
H    -5.388000000    -4.081000000    -2.253000000
O    -0.435000000     3.846000000    -1.997000000
H     0.172000000     4.372000000    -1.476000000
H    -1.303000000     4.164000000    -1.747000000
O     6.308000000    -4.791000000     1.482000000
H     5.641000000    -5.333000000     1.902000000
H     5.864000000    -3.963000000     1.299000000
O     1.996000000     4.432000000    -4.058000000
H     1.222000000     4.670000000    -4.569000000
H     2.077000000     3.485000000    -4.174000000
O     4.174000000     2.728000000     3.983000000
H     4.308000000     2.907000000     3.052000000
H     3.360000000     2.225000000     4.015000000
O    -1.332000000    -4.067000000    -3.647000000
H    -0.820000000    -4.049000000    -2.838000000
H    -2.126000000    -3.575000000    -3.439000000
O    -3.645000000    -6.469000000    -0.994000000
H    -2.858000000    -6.199000000    -0.521000000
H    -3.861000000    -5.718000000    -1.547000000
O     4.439000000    -6.435000000     2.184000000
H     4.068000000    -6.210000000     1.331000000
H     3.824000000    -7.070000000     2.552000000
O     1.895000000    -5.258000000    -2.575000000
H     1.452000000    -4.524000000    -2.152000000
H     1.451000000    -6.035000000    -2.235000000
O    -0.226000000    -6.269000000    -4.835000000
H    -0.623000000    -5.494000000    -4.436000000
H    -0.908000000    -6.617000000    -5.411000000
O     0.029000000    -5.059000000     2.906000000
H    -0.109000000    -5.329000000     1.998000000
H     0.689000000    -5.667000000     3.239000000
O    -3.275000000    -3.389000000     0.452000000
H    -3.147000000    -3.262000000    -0.488000000
H    -4.201000000    -3.614000000     0.540000000
O     2.778000000    -1.373000000     4.364000000
H     3.165000000    -1.389000000     5.239000000
H     1.878000000    -1.080000000     4.505000000
O    -5.997000000     3.312000000    -0.875000000
H    -5.847000000     2.651000000    -0.200000000
H    -5.582000000     2.953000000    -1.660000000
O    -0.004000000    -8.312000000    -3.189000000
H    -0.209000000    -7.735000000    -3.925000000
H     0.404000000    -7.738000000    -2.541000000
O    -4.269000000    -0.402000000     3.528000000
H    -4.478000000    -0.170000000     2.623000000
H    -3.313000000    -0.363000000     3.571000000
O    -1.899000000     3.340000000     4.734000000
H    -2.504000000     3.956000000     4.321000000
H    -2.392000000     2.521000000     4.790000000
O    -3.624000000     5.172000000     3.550000000
H    -3.610000000     6.128000000     3.604000000
H    -4.187000000     4.982000000     2.800000000
O     3.577000000    -3.994000000     3.837000000
H     3.787000000    -4.196000000     2.925000000
H     3.144000000    -3.141000000     3.800000000
O     3.834000000    -5.722000000    -0.330000000
H     3.767000000    -4.780000000    -0.174000000
H     3.366000000    -5.863000000    -1.153000000
O    -5.369000000     5.129000000     1.049000000
H    -5.567000000     4.604000000     0.273000000
H    -6.150000000     5.053000000     1.596000000
O     3.359000000     3.146000000    -1.709000000
H     2.710000000     3.662000000    -2.188000000
H     3.001000000     2.258000000    -1.702000000
O    -0.114000000     1.608000000    -3.541000000
H     0.669000000     1.107000000    -3.313000000
H    -0.195000000     2.258000000    -2.842000000
O    -2.361000000     0.709000000    -5.023000000
H    -2.642000000     1.307000000    -5.716000000
H    -2.002000000     1.280000000    -4.344000000
O    -0.369000000     6.576000000     3.284000000
H     0.189000000     6.134000000     2.644000000
H    -0.326000000     7.501000000     3.042000000
O     6.072000000    -0.569000000    -1.447000000
H     5.725000000    -0.031000000    -0.736000000
H     5.389000000    -1.219000000    -1.612000000
O    -3.179000000    -1.790000000    -3.705000000
H    -2.884000000    -1.049000000    -4.235000000
H    -3.385000000    -1.406000000    -2.852000000
O    -2.727000000     6.392000000     0.751000000
H    -2.033000000     5.806000000     1.052000000
H    -3.530000000     5.878000000     0.838000000
O     4.890000000     0.911000000     0.390000000
H     4.900000000     0.513000000     1.260000000
H     4.244000000     1.614000000     0.455000000
O     2.660000000     0.595000000    -2.006000000
H     3.284000000     0.410000000    -2.708000000
H     2.770000000    -0.129000000    -1.390000000
O     3.984000000    -2.184000000    -1.965000000
H     3.194000000    -2.578000000    -1.593000000
H     4.516000000    -2.930000000    -2.241000000
O    -5.435000000     2.634000000    -3.649000000
H    -4.994000000     3.291000000    -4.188000000
H    -6.350000000     2.670000000    -3.929000000
O    -2.713000000     5.176000000    -1.874000000
H    -2.947000000     5.856000000    -1.243000000
H    -3.352000000     5.275000000    -2.581000000
O     4.808000000    -0.585000000     2.552000000
H     5.414000000    -0.251000000     3.213000000
H     4.095000000    -0.977000000     3.056000000
O     0.045000000     0.095000000     4.876000000
H     0.204000000     1.001000000     5.143000000
H    -0.537000000     0.167000000     4.120000000
O     5.351000000    -4.497000000    -2.619000000
H     4.680000000    -4.674000000    -3.279000000
H     5.450000000    -5.326000000    -2.150000000
O    -4.820000000     0.545000000     1.073000000
H    -5.719000000     0.437000000     0.763000000
H    -4.277000000     0.245000000     0.344000000
O     0.808000000    -7.023000000    -0.969000000
H     1.242000000    -7.552000000    -0.299000000
H    -0.008000000    -6.738000000    -0.557000000
O    -1.427000000     0.044000000     2.590000000
H    -1.307000000    -0.895000000     2.735000000
H    -0.976000000     0.218000000     1.764000000
O    -1.652000000    -2.622000000     2.326000000
H    -1.005000000    -3.327000000     2.312000000
H    -2.283000000    -2.863000000     1.648000000
O     3.563000000    -5.726000000    -4.809000000
H     3.882000000    -6.603000000    -4.596000000
H     2.968000000    -5.506000000    -4.092000000
O     4.067000000    -3.004000000     0.797000000
H     3.535000000    -2.612000000     0.105000000
H     4.611000000    -2.285000000     1.118000000
O     3.816000000     3.376000000     1.187000000
H     3.625000000     3.278000000     0.254000000
H     4.403000000     4.130000000     1.234000000
O    -1.270000000    -5.206000000     0.026000000
H    -2.023000000    -4.694000000     0.320000000
H    -0.778000000    -4.607000000    -0.536000000
