158
-3035.68933
C    -1.058000000    -1.058000000    -0.044000000
H    -1.844000000    -1.808000000    -0.002000000
C    -0.714000000    -0.359000000     1.079000000
H    -1.208000000    -0.452000000     2.043000000
C     0.268000000     0.642000000     1.022000000
H     0.559000000     1.191000000     1.937000000
C     0.952000000     0.910000000    -0.190000000
H     1.615000000     1.765000000    -0.294000000
C     0.591000000     0.190000000    -1.319000000
H     1.045000000     0.485000000    -2.262000000
C    -0.363000000    -0.848000000    -1.248000000
C    -0.696000000    -1.687000000    -2.468000000
O    -1.558000000    -2.560000000    -2.474000000
O    -0.093000000    -1.503000000    -3.479000000
O    -6.030000000    -0.809000000     2.286000000
H    -5.596000000    -0.966000000     3.124000000
H    -6.485000000     0.024000000     2.404000000
O     4.703000000     5.561000000     4.064000000
H     4.137000000     5.091000000     3.451000000
H     4.158000000     5.693000000     4.839000000
O     1.249000000     6.950000000     1.344000000
H     1.162000000     6.000000000     1.429000000
H     0.348000000     7.268000000     1.284000000
O     1.521000000    -4.158000000    -1.630000000
H     1.455000000    -4.132000000    -2.584000000
H     1.942000000    -3.331000000    -1.396000000
O    -0.940000000     4.754000000     6.111000000
H    -0.867000000     4.447000000     7.015000000
H    -0.124000000     4.473000000     5.696000000
O     1.982000000     2.443000000     7.828000000
H     2.516000000     2.316000000     7.045000000
H     1.100000000     2.608000000     7.493000000
O    -1.460000000    -1.099000000    -7.799000000
H    -1.441000000    -2.035000000    -7.997000000
H    -2.116000000    -0.740000000    -8.396000000
O    -0.459000000     4.635000000    -0.668000000
H    -0.538000000     4.706000000     0.284000000
H    -1.175000000     4.055000000    -0.925000000
O     2.308000000     4.506000000    -0.313000000
H     2.745000000     4.248000000    -1.125000000
H     1.384000000     4.312000000    -0.467000000
O     2.041000000     0.592000000     4.564000000
H     2.820000000     0.292000000     4.096000000
H     1.610000000    -0.212000000     4.853000000
O    -3.584000000     4.311000000     0.574000000
H    -2.884000000     3.666000000     0.679000000
H    -4.384000000     3.835000000     0.800000000
O    -5.372000000    -4.049000000    -2.426000000
H    -5.730000000    -4.931000000    -2.321000000
H    -4.574000000    -4.174000000    -2.941000000
O    -4.018000000    -1.820000000    -1.635000000
H    -3.099000000    -2.061000000    -1.748000000
H    -4.493000000    -2.649000000    -1.702000000
O    -3.191000000     0.711000000     4.625000000
H    -4.114000000     0.619000000     4.389000000
H    -2.928000000     1.548000000     4.241000000
O    -4.186000000     0.603000000    -3.285000000
H    -3.814000000    -0.236000000    -3.016000000
H    -4.447000000     1.024000000    -2.465000000
O    -2.559000000    -3.592000000    -4.735000000
H    -2.212000000    -3.260000000    -3.907000000
H    -2.155000000    -4.454000000    -4.835000000
O    -2.809000000     3.457000000    -2.606000000
H    -2.555000000     2.889000000    -1.878000000
H    -3.599000000     3.050000000    -2.962000000
O     5.108000000    -1.016000000    -2.146000000
H     5.088000000    -1.791000000    -2.709000000
H     6.026000000    -0.743000000    -2.147000000
O     3.964000000    -0.915000000     3.381000000
H     4.601000000    -1.156000000     2.709000000
H     3.349000000    -1.648000000     3.404000000
O    -3.446000000    -6.237000000    -3.515000000
H    -2.582000000    -6.095000000    -3.130000000
H    -3.450000000    -7.162000000    -3.760000000
O    -2.525000000    -2.995000000     3.069000000
H    -2.358000000    -2.676000000     3.956000000
H    -2.205000000    -3.898000000     3.076000000
O    -4.234000000    -1.810000000    -6.306000000
H    -3.551000000    -1.965000000    -6.958000000
H    -3.964000000    -2.328000000    -5.548000000
O     1.667000000     4.052000000    -3.142000000
H     2.263000000     3.358000000    -3.423000000
H     0.795000000     3.721000000    -3.358000000
O    -2.199000000    -1.643000000     5.518000000
H    -2.429000000    -0.802000000     5.123000000
H    -1.873000000    -1.416000000     6.389000000
O     3.035000000    -1.797000000    -0.818000000
H     2.607000000    -1.072000000    -0.365000000
H     3.670000000    -1.376000000    -1.398000000
O     3.305000000     4.331000000     2.170000000
H     2.640000000     4.435000000     1.490000000
H     3.971000000     3.770000000     1.770000000
O    -1.406000000     0.053000000    -5.148000000
H    -1.478000000    -0.447000000    -5.960000000
H    -1.122000000    -0.588000000    -4.496000000
O     0.660000000    -1.754000000     5.206000000
H     1.138000000    -2.332000000     5.801000000
H    -0.248000000    -2.053000000     5.259000000
O    -0.565000000     2.503000000    -4.203000000
H    -0.740000000     1.627000000    -4.547000000
H    -1.398000000     2.781000000    -3.823000000
O    -2.728000000     3.252000000     3.498000000
H    -2.902000000     3.930000000     4.150000000
H    -3.563000000     3.137000000     3.043000000
O    -2.184000000     2.121000000    -0.205000000
H    -1.503000000     1.542000000     0.137000000
H    -3.004000000     1.660000000    -0.024000000
O     1.823000000    -3.148000000    -4.404000000
H     1.320000000    -2.411000000    -4.055000000
H     2.603000000    -2.745000000    -4.786000000
O    -4.342000000     0.214000000     0.091000000
H    -4.755000000    -0.356000000     0.740000000
H    -4.120000000    -0.369000000    -0.635000000
O     3.274000000    -3.701000000     3.114000000
H     3.847000000    -3.867000000     2.366000000
H     2.447000000    -3.415000000     2.725000000
O     5.202000000     1.756000000     3.406000000
H     5.475000000     2.170000000     2.587000000
H     4.633000000     1.037000000     3.132000000
O     1.845000000    -0.311000000    -4.723000000
H     1.631000000    -0.376000000    -5.654000000
H     1.093000000    -0.700000000    -4.277000000
O     1.037000000    -2.593000000     2.053000000
H     0.606000000    -3.110000000     1.373000000
H     0.363000000    -1.982000000     2.353000000
O     1.160000000    -0.509000000    -7.487000000
H     1.318000000     0.412000000    -7.697000000
H     0.236000000    -0.646000000    -7.695000000
O    -0.484000000     3.564000000     2.051000000
H    -1.253000000     3.671000000     2.610000000
H    -0.327000000     2.619000000     2.037000000
O     4.667000000     1.600000000    -1.505000000
H     4.359000000     1.990000000    -2.324000000
H     4.992000000     0.736000000    -1.759000000
O     4.203000000    -2.122000000    -5.449000000
H     4.873000000    -2.255000000    -4.779000000
H     3.801000000    -1.284000000    -5.222000000
O     3.155000000     1.996000000    -4.006000000
H     3.880000000     1.959000000    -4.630000000
H     2.734000000     1.139000000    -4.077000000
O     2.387000000     3.253000000     4.878000000
H     2.516000000     3.568000000     3.983000000
H     2.306000000     2.303000000     4.788000000
O     5.252000000     2.813000000     0.901000000
H     4.906000000     2.547000000     0.049000000
H     6.200000000     2.850000000     0.774000000
O    -0.275000000     1.729000000     6.133000000
H     0.067000000     1.102000000     5.495000000
H    -1.099000000     1.342000000     6.430000000
O    -0.079000000    -5.981000000    -4.315000000
H     0.464000000    -5.232000000    -4.562000000
H    -0.526000000    -5.701000000    -3.517000000
O    -1.427000000    -5.367000000    -1.996000000
H    -1.593000000    -4.457000000    -1.750000000
H    -1.479000000    -5.851000000    -1.172000000
O    -3.604000000     1.469000000    -6.021000000
H    -2.730000000     1.132000000    -5.823000000
H    -4.129000000     1.239000000    -5.254000000
