158
-3040.52339
C    -0.868000000    -1.123000000     0.269000000
H    -1.425000000    -2.024000000     0.516000000
C    -0.297000000    -0.396000000     1.203000000
H    -0.323000000    -0.715000000     2.241000000
C     0.498000000     0.706000000     0.915000000
H     1.088000000     1.220000000     1.672000000
C     0.718000000     1.021000000    -0.433000000
H     1.378000000     1.844000000    -0.692000000
C     0.068000000     0.309000000    -1.453000000
H     0.145000000     0.500000000    -2.521000000
C    -0.737000000    -0.785000000    -1.115000000
C    -1.327000000    -1.600000000    -2.250000000
O    -2.211000000    -2.414000000    -1.973000000
O    -0.893000000    -1.473000000    -3.388000000
O     3.829000000    -2.027000000     2.041000000
H     3.063000000    -2.248000000     1.512000000
H     3.541000000    -1.295000000     2.587000000
O     3.268000000     3.628000000    -3.489000000
H     2.611000000     2.938000000    -3.580000000
H     2.781000000     4.380000000    -3.153000000
O    -4.755000000    -3.267000000    -6.318000000
H    -3.851000000    -3.115000000    -6.593000000
H    -4.696000000    -3.421000000    -5.376000000
O    -0.211000000     4.337000000     4.781000000
H    -0.762000000     3.840000000     5.385000000
H    -0.594000000     4.177000000     3.919000000
O     1.657000000     0.207000000     6.968000000
H     0.841000000     0.489000000     6.554000000
H     1.377000000    -0.257000000     7.757000000
O    -5.674000000    -1.950000000     2.149000000
H    -5.485000000    -2.409000000     1.330000000
H    -4.982000000    -2.233000000     2.747000000
O    -0.753000000     4.001000000     1.938000000
H     0.195000000     4.134000000     1.904000000
H    -1.111000000     4.682000000     1.368000000
O     0.903000000    -2.028000000     4.427000000
H     0.646000000    -2.557000000     3.672000000
H     1.318000000    -2.649000000     5.025000000
O     5.428000000     1.902000000    -3.958000000
H     5.233000000     1.957000000    -4.894000000
H     4.904000000     2.599000000    -3.563000000
O     1.559000000     5.741000000    -2.568000000
H     1.959000000     6.195000000    -1.826000000
H     1.310000000     6.441000000    -3.171000000
O    -0.509000000     0.861000000    -8.005000000
H    -1.169000000     1.518000000    -7.787000000
H    -0.742000000     0.101000000    -7.471000000
O    -5.709000000    -3.734000000     0.202000000
H    -6.618000000    -3.732000000    -0.098000000
H    -5.703000000    -4.340000000     0.943000000
O    -3.180000000    -4.497000000    -0.936000000
H    -2.825000000    -3.761000000    -1.435000000
H    -4.008000000    -4.170000000    -0.584000000
O    -4.314000000     0.867000000     5.302000000
H    -4.971000000     0.184000000     5.433000000
H    -3.656000000     0.462000000     4.738000000
O    -0.477000000    -0.967000000    -5.927000000
H    -0.749000000    -1.145000000    -5.027000000
H    -0.816000000    -1.707000000    -6.430000000
O     1.267000000     6.328000000     2.754000000
H     1.692000000     6.532000000     3.587000000
H     0.358000000     6.602000000     2.875000000
O    -3.991000000    -0.821000000    -0.781000000
H    -3.408000000    -1.354000000    -1.322000000
H    -4.851000000    -1.228000000    -0.883000000
O    -4.187000000    -2.866000000    -3.682000000
H    -3.470000000    -2.563000000    -3.125000000
H    -4.495000000    -3.669000000    -3.261000000
O    -2.297000000     2.517000000     0.317000000
H    -1.909000000     3.183000000     0.886000000
H    -1.553000000     2.143000000    -0.154000000
O     5.781000000    -0.490000000     4.609000000
H     4.880000000    -0.167000000     4.610000000
H     6.316000000     0.295000000     4.727000000
O    -2.856000000     3.672000000    -5.611000000
H    -2.527000000     2.792000000    -5.426000000
H    -2.909000000     3.712000000    -6.566000000
O    -2.165000000    -4.672000000     2.079000000
H    -2.471000000    -4.543000000     1.181000000
H    -1.295000000    -4.274000000     2.095000000
O    -2.198000000    -2.722000000    -7.410000000
H    -2.474000000    -2.661000000    -8.324000000
H    -1.846000000    -3.608000000    -7.324000000
O    -6.481000000    -1.277000000    -1.881000000
H    -6.917000000    -0.424000000    -1.881000000
H    -7.098000000    -1.861000000    -2.322000000
O     5.043000000     3.705000000     0.297000000
H     5.351000000     2.869000000     0.648000000
H     5.407000000     3.742000000    -0.587000000
O    -5.129000000     0.620000000     1.334000000
H    -5.182000000    -0.255000000     1.717000000
H    -4.364000000     0.585000000     0.760000000
O    -4.352000000     0.469000000    -5.974000000
H    -5.066000000    -0.145000000    -5.803000000
H    -3.613000000     0.124000000    -5.472000000
O    -2.027000000     5.023000000    -0.869000000
H    -2.603000000     4.355000000    -0.497000000
H    -1.366000000     4.527000000    -1.352000000
O     0.266000000    -3.634000000     2.265000000
H     0.585000000    -3.398000000     1.394000000
H     0.630000000    -4.504000000     2.426000000
O     2.984000000     4.072000000     2.533000000
H     2.187000000     4.597000000     2.599000000
H     3.347000000     4.293000000     1.675000000
O    -3.887000000     1.778000000    -1.971000000
H    -4.007000000     0.905000000    -1.597000000
H    -3.318000000     2.229000000    -1.347000000
O     1.561000000     1.756000000    -4.908000000
H     1.942000000     1.892000000    -5.775000000
H     1.616000000     0.811000000    -4.767000000
O    -2.759000000    -0.148000000     3.595000000
H    -2.625000000     0.179000000     2.705000000
H    -3.083000000    -1.041000000     3.476000000
O    -0.230000000     3.467000000    -2.203000000
H    -0.413000000     3.059000000    -3.050000000
H     0.221000000     4.282000000    -2.422000000
O     0.251000000    -4.745000000    -3.212000000
H     0.007000000    -3.826000000    -3.097000000
H     1.146000000    -4.799000000    -2.875000000
O    -3.559000000    -2.974000000     3.823000000
H    -4.132000000    -3.507000000     4.373000000
H    -3.156000000    -3.599000000     3.220000000
O     3.071000000    -0.227000000     4.610000000
H     2.357000000    -0.839000000     4.437000000
H     2.836000000     0.186000000     5.441000000
O    -1.057000000     1.735000000    -5.270000000
H    -0.205000000     2.133000000    -5.088000000
H    -0.852000000     0.831000000    -5.509000000
O     1.657000000    -0.817000000    -4.027000000
H     1.931000000    -1.664000000    -4.379000000
H     0.765000000    -0.966000000    -3.712000000
O     2.271000000    -3.812000000    -5.044000000
H     2.932000000    -4.502000000    -4.990000000
H     1.818000000    -3.979000000    -5.870000000
O    -4.017000000    -6.910000000    -1.024000000
H    -3.510000000    -6.102000000    -1.109000000
H    -3.948000000    -7.140000000    -0.098000000
O    -1.798000000     2.571000000     5.976000000
H    -2.691000000     2.362000000     5.700000000
H    -1.359000000     1.722000000     6.028000000
O     2.035000000    -3.134000000     0.150000000
H     2.182000000    -2.320000000    -0.333000000
H     2.317000000    -3.823000000    -0.452000000
O     3.069000000    -1.332000000    -1.626000000
H     3.945000000    -0.969000000    -1.762000000
H     2.550000000    -0.983000000    -2.351000000
O     2.889000000     2.804000000     7.091000000
H     3.805000000     2.766000000     6.815000000
H     2.524000000     1.960000000     6.824000000
O    -0.698000000     0.243000000     5.415000000
H    -1.413000000     0.058000000     4.806000000
H    -0.054000000    -0.445000000     5.245000000
O    -1.025000000    -6.389000000    -1.489000000
H    -1.879000000    -5.961000000    -1.544000000
H    -0.526000000    -6.024000000    -2.220000000
O     4.419000000     4.923000000     5.018000000
H     4.051000000     4.306000000     4.384000000
H     4.749000000     5.646000000     4.484000000
