158
-3051.33458
C    -0.943000000    -1.181000000     0.180000000
H    -1.625000000    -2.020000000     0.294000000
C    -0.489000000    -0.347000000     1.205000000
H    -0.851000000    -0.502000000     2.218000000
C     0.366000000     0.684000000     0.935000000
H     0.785000000     1.145000000     1.754000000
C     0.785000000     0.888000000    -0.336000000
H     1.497000000     1.691000000    -0.506000000
C     0.355000000     0.126000000    -1.382000000
H     0.737000000     0.228000000    -2.395000000
C    -0.554000000    -0.901000000    -1.150000000
C    -0.866000000    -1.816000000    -2.281000000
O    -1.693000000    -2.669000000    -2.108000000
O    -0.430000000    -1.683000000    -3.434000000
O     3.931000000    -0.155000000    -0.058000000
H     3.208000000     0.472000000    -0.025000000
H     3.715000000    -0.730000000    -0.792000000
O     0.384000000     2.819000000     6.590000000
H     0.148000000     2.682000000     7.507000000
H    -0.418000000     2.625000000     6.104000000
O    -0.824000000    -7.639000000    -0.441000000
H    -0.422000000    -6.824000000    -0.742000000
H    -0.475000000    -8.309000000    -1.029000000
O    -1.483000000     3.290000000     2.695000000
H    -1.202000000     2.710000000     3.402000000
H    -2.439000000     3.270000000     2.733000000
O    -6.523000000    -2.315000000     1.022000000
H    -6.035000000    -3.050000000     0.651000000
H    -5.934000000    -1.942000000     1.678000000
O     0.338000000     4.582000000     1.154000000
H    -0.391000000     4.256000000     1.682000000
H    -0.081000000     5.011000000     0.407000000
O     3.232000000     3.849000000     3.395000000
H     2.948000000     3.763000000     2.485000000
H     3.822000000     3.108000000     3.533000000
O     1.446000000    -1.965000000     3.492000000
H     1.013000000    -1.320000000     2.933000000
H     1.789000000    -2.619000000     2.882000000
O    -4.944000000    -4.971000000     1.288000000
H    -4.620000000    -5.861000000     1.427000000
H    -4.519000000    -4.684000000     0.480000000
O     2.464000000     6.448000000    -1.348000000
H     1.587000000     6.226000000    -1.036000000
H     2.524000000     7.397000000    -1.235000000
O     1.782000000     5.104000000     5.773000000
H     1.104000000     4.468000000     6.002000000
H     2.458000000     4.587000000     5.335000000
O    -4.285000000    -3.933000000    -1.182000000
H    -3.519000000    -3.390000000    -1.368000000
H    -4.934000000    -3.660000000    -1.830000000
O    -3.727000000     0.005000000     5.101000000
H    -3.824000000    -0.852000000     5.517000000
H    -4.326000000    -0.022000000     4.355000000
O    -4.086000000    -1.631000000    -5.985000000
H    -4.849000000    -1.297000000    -5.512000000
H    -3.705000000    -2.281000000    -5.395000000
O     1.516000000     6.256000000     2.989000000
H     1.957000000     5.619000000     3.550000000
H     1.216000000     5.746000000     2.236000000
O    -4.125000000    -0.534000000    -2.706000000
H    -3.803000000    -1.433000000    -2.769000000
H    -4.922000000    -0.528000000    -3.237000000
O    -2.332000000    -3.166000000    -4.657000000
H    -2.113000000    -3.070000000    -3.730000000
H    -1.495000000    -3.077000000    -5.112000000
O    -1.730000000     2.918000000    -0.452000000
H    -1.669000000     3.058000000     0.493000000
H    -1.422000000     2.021000000    -0.582000000
O     4.720000000     1.837000000     4.285000000
H     4.388000000     0.956000000     4.455000000
H     5.626000000     1.815000000     4.595000000
O    -3.841000000    -5.459000000    -4.802000000
H    -4.706000000    -5.188000000    -5.111000000
H    -3.320000000    -4.656000000    -4.814000000
O    -2.301000000    -3.809000000     2.919000000
H    -1.431000000    -4.182000000     3.063000000
H    -2.763000000    -4.470000000     2.404000000
O    -0.445000000    -2.276000000    -6.886000000
H    -0.835000000    -1.409000000    -6.774000000
H     0.316000000    -2.126000000    -7.446000000
O     3.267000000     3.217000000    -2.103000000
H     3.643000000     2.708000000    -2.822000000
H     2.565000000     3.725000000    -2.511000000
O    -4.966000000     1.367000000    -0.691000000
H    -5.889000000     1.128000000    -0.771000000
H    -4.501000000     0.701000000    -1.196000000
O    -0.287000000     5.015000000    -1.767000000
H    -0.643000000     4.170000000    -1.491000000
H     0.336000000     4.797000000    -2.460000000
O    -0.014000000    -3.604000000     5.560000000
H     0.536000000    -4.364000000     5.750000000
H     0.442000000    -3.150000000     4.852000000
O     1.329000000    -3.914000000    -0.753000000
H     1.685000000    -3.126000000    -1.164000000
H     0.568000000    -4.141000000    -1.288000000
O     2.879000000     3.524000000     0.682000000
H     2.113000000     4.097000000     0.722000000
H     3.159000000     3.563000000    -0.233000000
O    -1.990000000     0.513000000    -4.202000000
H    -2.653000000     0.391000000    -3.523000000
H    -1.581000000    -0.347000000    -4.295000000
O     2.043000000     2.302000000    -5.426000000
H     1.999000000     2.319000000    -6.382000000
H     1.998000000     1.373000000    -5.200000000
O    -4.293000000     0.993000000     2.079000000
H    -4.489000000     1.120000000     1.151000000
H    -4.169000000     0.048000000     2.171000000
O     1.249000000     4.212000000    -3.859000000
H     1.344000000     3.441000000    -4.419000000
H     0.643000000     4.780000000    -4.336000000
O     0.701000000    -3.990000000    -4.541000000
H     0.481000000    -3.080000000    -4.340000000
H     1.653000000    -3.988000000    -4.648000000
O    -4.279000000    -1.890000000     3.234000000
H    -4.960000000    -2.511000000     3.492000000
H    -3.460000000    -2.314000000     3.490000000
O     3.639000000    -0.644000000     4.758000000
H     4.350000000    -1.124000000     4.335000000
H     2.854000000    -1.155000000     4.562000000
O     5.489000000    -0.486000000     2.181000000
H     4.965000000    -0.555000000     1.383000000
H     5.938000000     0.355000000     2.101000000
O    -2.162000000    -0.132000000    -6.878000000
H    -2.902000000    -0.739000000    -6.882000000
H    -2.161000000     0.240000000    -5.996000000
O     1.648000000    -0.443000000    -5.054000000
H     1.488000000    -0.687000000    -5.965000000
H     0.830000000    -0.653000000    -4.603000000
O     2.320000000    -4.245000000     1.874000000
H     3.089000000    -4.793000000     2.034000000
H     2.290000000    -4.145000000     0.923000000
O    -2.138000000     2.220000000     5.017000000
H    -2.794000000     2.779000000     4.601000000
H    -2.610000000     1.414000000     5.228000000
O     3.479000000    -2.016000000    -1.921000000
H     3.914000000    -2.188000000    -2.756000000
H     3.776000000    -2.721000000    -1.346000000
O     4.153000000    -1.044000000    -4.439000000
H     4.604000000    -0.243000000    -4.705000000
H     3.244000000    -0.907000000    -4.709000000
O     0.195000000    -5.373000000     2.817000000
H     0.960000000    -4.989000000     2.387000000
H     0.334000000    -5.202000000     3.748000000
O     3.424000000     2.394000000     6.449000000
H     3.776000000     2.074000000     5.619000000
H     2.554000000     1.999000000     6.509000000
O     5.997000000     2.571000000    -1.317000000
H     5.150000000     2.313000000    -0.953000000
H     6.611000000     1.918000000    -0.980000000
O    -0.264000000    -1.032000000     6.797000000
H    -0.672000000    -0.349000000     6.265000000
H    -0.214000000    -1.791000000     6.216000000
O    -0.776000000    -5.255000000    -2.248000000
H    -1.344000000    -4.537000000    -1.968000000
H    -0.499000000    -5.010000000    -3.131000000
O     5.506000000     5.800000000     1.564000000
H     5.056000000     5.080000000     2.007000000
H     5.559000000     5.523000000     0.650000000
