158
-3052.05499
C    -1.264000000    -0.776000000     0.077000000
H    -2.193000000    -1.304000000     0.274000000
C    -0.476000000    -0.390000000     1.132000000
H    -0.785000000    -0.628000000     2.147000000
C     0.731000000     0.307000000     0.971000000
H     1.319000000     0.639000000     1.808000000
C     1.096000000     0.643000000    -0.345000000
H     2.066000000     1.114000000    -0.474000000
C     0.353000000     0.248000000    -1.452000000
H     0.690000000     0.543000000    -2.443000000
C    -0.916000000    -0.472000000    -1.253000000
C    -1.885000000    -0.780000000    -2.449000000
O    -2.988000000    -1.168000000    -2.235000000
O    -1.437000000    -0.689000000    -3.632000000
O     2.972000000    -1.808000000     0.991000000
H     3.698000000    -1.189000000     0.914000000
H     2.195000000    -1.257000000     1.078000000
O     1.924000000     3.173000000    -3.248000000
H     1.637000000     2.854000000    -4.104000000
H     1.198000000     3.716000000    -2.940000000
O     6.236000000     3.013000000    -0.381000000
H     5.473000000     2.731000000    -0.885000000
H     5.927000000     3.043000000     0.525000000
O    -5.166000000     0.127000000    -5.903000000
H    -5.021000000    -0.543000000    -5.236000000
H    -4.473000000     0.769000000    -5.753000000
O     0.843000000     4.322000000     3.156000000
H     1.574000000     3.944000000     2.667000000
H     0.073000000     3.846000000     2.843000000
O     4.106000000    -0.479000000    -5.725000000
H     4.238000000     0.417000000    -5.413000000
H     3.159000000    -0.558000000    -5.834000000
O    -0.650000000    -1.394000000     6.765000000
H    -1.398000000    -1.866000000     6.400000000
H    -0.967000000    -1.051000000     7.600000000
O    -2.986000000    -4.031000000     4.192000000
H    -3.888000000    -3.813000000     3.957000000
H    -2.506000000    -3.991000000     3.365000000
O    -8.025000000    -0.713000000    -0.338000000
H    -7.157000000    -0.704000000    -0.741000000
H    -7.927000000    -1.277000000     0.429000000
O    -0.877000000     2.664000000     1.585000000
H    -0.789000000     1.845000000     1.096000000
H    -1.795000000     2.684000000     1.854000000
O     0.952000000    -2.632000000     3.062000000
H     0.482000000    -3.162000000     3.706000000
H     0.563000000    -2.875000000     2.222000000
O     0.079000000     4.530000000    -2.098000000
H     0.154000000     5.462000000    -1.896000000
H    -0.849000000     4.402000000    -2.296000000
O    -1.570000000    -0.248000000    -8.134000000
H    -1.678000000    -0.489000000    -7.214000000
H    -2.132000000     0.519000000    -8.248000000
O     3.883000000     4.476000000     4.420000000
H     3.477000000     3.825000000     3.848000000
H     3.893000000     5.280000000     3.900000000
O    -4.688000000    -2.510000000    -0.814000000
H    -3.959000000    -2.011000000    -1.182000000
H    -4.737000000    -3.297000000    -1.356000000
O     1.284000000     5.181000000     5.805000000
H     2.206000000     5.217000000     5.551000000
H     0.815000000     5.024000000     4.986000000
O    -2.389000000    -2.002000000    -5.642000000
H    -2.310000000    -1.401000000    -4.901000000
H    -3.276000000    -2.355000000    -5.570000000
O     0.756000000     7.068000000     2.641000000
H     0.785000000     6.126000000     2.806000000
H    -0.095000000     7.212000000     2.227000000
O    -5.139000000    -2.162000000    -4.155000000
H    -4.579000000    -1.810000000    -3.462000000
H    -6.017000000    -2.166000000    -3.774000000
O    -3.459000000     1.821000000     1.512000000
H    -3.965000000     2.592000000     1.770000000
H    -4.036000000     1.081000000     1.704000000
O     2.602000000     1.507000000     4.449000000
H     2.080000000     0.706000000     4.485000000
H     2.240000000     1.997000000     3.711000000
O    -4.247000000     2.696000000    -5.196000000
H    -3.423000000     2.220000000    -5.102000000
H    -4.056000000     3.383000000    -5.835000000
O    -5.100000000    -3.769000000     1.966000000
H    -5.026000000    -3.445000000     1.068000000
H    -4.416000000    -4.435000000     2.037000000
O    -2.938000000    -3.207000000    -8.119000000
H    -2.546000000    -2.864000000    -8.922000000
H    -2.460000000    -2.771000000    -7.414000000
O     4.335000000     1.622000000    -1.832000000
H     3.982000000     0.758000000    -1.622000000
H     3.568000000     2.193000000    -1.863000000
O     5.296000000    -0.535000000     0.805000000
H     5.650000000     0.119000000     1.408000000
H     5.959000000    -0.611000000     0.119000000
O     0.910000000    -3.603000000     0.275000000
H     1.592000000    -2.936000000     0.356000000
H     1.083000000    -4.021000000    -0.569000000
O     2.726000000     3.893000000    -0.810000000
H     2.103000000     3.887000000    -1.537000000
H     2.783000000     4.813000000    -0.551000000
O     3.073000000    -5.076000000     2.182000000
H     2.597000000    -5.906000000     2.168000000
H     2.409000000    -4.415000000     1.986000000
O    -4.457000000     1.072000000    -1.316000000
H    -3.880000000     0.312000000    -1.388000000
H    -4.452000000     1.289000000    -0.384000000
O     1.205000000     1.624000000    -5.343000000
H     1.478000000     1.733000000    -6.253000000
H     1.068000000     0.681000000    -5.245000000
O    -5.183000000    -0.345000000     1.613000000
H    -5.009000000    -0.704000000     0.743000000
H    -5.942000000    -0.836000000     1.927000000
O    -2.513000000     4.050000000    -2.658000000
H    -2.717000000     3.122000000    -2.767000000
H    -2.950000000     4.479000000    -3.394000000
O    -0.945000000    -3.926000000    -2.865000000
H    -0.609000000    -3.567000000    -3.686000000
H    -0.182000000    -3.954000000    -2.287000000
O     1.108000000    -0.413000000     4.362000000
H     1.109000000    -1.164000000     3.769000000
H     0.233000000    -0.417000000     4.750000000
O     5.024000000     0.346000000     3.981000000
H     5.452000000     0.373000000     4.837000000
H     4.126000000     0.628000000     4.153000000
O    -2.072000000     1.342000000    -5.204000000
H    -1.203000000     1.651000000    -5.460000000
H    -1.901000000     0.665000000    -4.549000000
O     1.159000000    -0.958000000    -4.325000000
H     1.694000000    -0.698000000    -3.575000000
H     0.257000000    -0.830000000    -4.031000000
O     5.147000000    -2.426000000     3.335000000
H     5.334000000    -1.517000000     3.570000000
H     4.378000000    -2.373000000     2.767000000
O     4.229000000    -1.016000000    -2.271000000
H     4.897000000    -0.711000000    -2.885000000
H     3.773000000    -1.715000000    -2.741000000
O    -1.341000000    -4.528000000     1.982000000
H    -0.963000000    -3.953000000     1.316000000
H    -0.805000000    -5.320000000     1.946000000
O     5.582000000     2.363000000     2.235000000
H     5.334000000     1.599000000     2.754000000
H     6.323000000     2.743000000     2.706000000
O     5.143000000    -3.931000000     0.524000000
H     5.212000000    -2.978000000     0.567000000
H     4.358000000    -4.138000000     1.031000000
O    -2.471000000    -5.335000000    -1.059000000
H    -2.064000000    -4.895000000    -1.805000000
H    -3.376000000    -5.484000000    -1.333000000
O     2.928000000     3.145000000     1.830000000
H     2.708000000     3.307000000     0.913000000
H     3.844000000     2.869000000     1.811000000
O    -6.314000000     2.678000000    -2.959000000
H    -5.926000000     2.217000000    -2.215000000
H    -5.570000000     2.894000000    -3.521000000
O    -0.165000000    -3.449000000    -5.191000000
H    -1.030000000    -3.292000000    -5.570000000
H     0.271000000    -2.598000000    -5.230000000
O     2.952000000    -0.698000000     6.995000000
H     2.634000000     0.058000000     7.489000000
H     2.670000000    -0.531000000     6.095000000
