158
-3043.29634
C    -0.392000000     0.542000000    -1.309000000
H    -0.792000000     0.861000000    -2.268000000
C    -1.125000000     0.534000000    -0.158000000
H    -2.158000000     0.873000000    -0.143000000
C    -0.601000000     0.182000000     1.081000000
H    -1.294000000     0.229000000     1.990000000
C     0.750000000    -0.223000000     1.092000000
H     1.165000000    -0.627000000     2.012000000
C     1.457000000    -0.366000000    -0.096000000
H     2.446000000    -0.816000000    -0.068000000
C     0.846000000    -0.122000000    -1.333000000
C     1.481000000    -0.495000000    -2.641000000
O     1.081000000     0.035000000    -3.690000000
O     2.219000000    -1.491000000    -2.715000000
O     2.901000000    -1.498000000    -7.533000000
H     2.955000000    -1.817000000    -8.434000000
H     2.981000000    -2.286000000    -6.995000000
O     0.027000000     4.928000000     1.763000000
H    -0.251000000     5.686000000     1.249000000
H    -0.770000000     4.410000000     1.876000000
O    -0.261000000     4.162000000    -2.743000000
H    -0.427000000     3.472000000    -3.386000000
H     0.693000000     4.205000000    -2.679000000
O     0.426000000    -2.643000000     4.799000000
H    -0.196000000    -3.359000000     4.927000000
H     0.794000000    -2.798000000     3.929000000
O     1.982000000     0.666000000    -6.092000000
H     1.824000000     0.491000000    -5.165000000
H     2.388000000    -0.136000000    -6.422000000
O    -1.641000000     3.038000000     4.898000000
H    -1.588000000     3.174000000     3.952000000
H    -2.575000000     3.106000000     5.098000000
O    -3.928000000     0.097000000     2.766000000
H    -4.624000000     0.301000000     3.391000000
H    -3.137000000     0.031000000     3.300000000
O     2.546000000     2.756000000    -0.083000000
H     1.707000000     2.318000000     0.058000000
H     2.466000000     3.152000000    -0.951000000
O    -6.219000000    -0.296000000     0.631000000
H    -5.344000000    -0.515000000     0.950000000
H    -6.813000000    -0.711000000     1.256000000
O    -0.225000000    -0.692000000    -7.712000000
H     0.401000000    -0.132000000    -7.252000000
H    -0.694000000    -1.149000000    -7.014000000
O    -1.584000000    -1.674000000    -3.932000000
H    -0.977000000    -0.981000000    -3.670000000
H    -1.311000000    -1.908000000    -4.819000000
O     2.575000000    -0.843000000     5.195000000
H     2.927000000    -1.159000000     4.363000000
H     1.800000000    -1.383000000     5.347000000
O    -0.361000000     2.038000000    -4.689000000
H     0.098000000     1.322000000    -4.249000000
H    -1.282000000     1.777000000    -4.673000000
O     1.217000000     2.925000000     5.313000000
H     0.934000000     2.944000000     6.227000000
H     0.500000000     3.338000000     4.832000000
O    -4.289000000    -2.190000000     5.381000000
H    -3.864000000    -2.190000000     6.240000000
H    -4.585000000    -1.288000000     5.262000000
O    -2.821000000    -3.140000000     3.190000000
H    -2.087000000    -3.643000000     3.544000000
H    -3.169000000    -2.662000000     3.942000000
O    -5.042000000     2.332000000     1.638000000
H    -5.678000000     2.112000000     0.957000000
H    -4.687000000     1.488000000     1.916000000
O     3.738000000    -2.134000000    -4.697000000
H     3.151000000    -1.880000000    -3.986000000
H     3.472000000    -3.026000000    -4.921000000
O    -5.799000000    -4.112000000     1.074000000
H    -5.315000000    -4.850000000     0.703000000
H    -5.150000000    -3.411000000     1.144000000
O    -2.575000000    -1.994000000     0.398000000
H    -2.096000000    -1.199000000     0.632000000
H    -3.005000000    -2.262000000     1.210000000
O    -1.663000000    -0.250000000     4.336000000
H    -1.208000000     0.471000000     4.772000000
H    -1.422000000    -1.026000000     4.842000000
O     7.180000000    -1.819000000    -2.142000000
H     7.196000000    -1.398000000    -3.001000000
H     6.251000000    -1.877000000    -1.920000000
O     4.943000000     0.942000000     2.715000000
H     4.556000000     1.296000000     3.515000000
H     5.864000000     1.196000000     2.762000000
O     2.584000000    -6.184000000    -0.973000000
H     2.256000000    -5.296000000    -0.836000000
H     2.076000000    -6.724000000    -0.367000000
O     1.256000000    -3.685000000    -1.107000000
H     1.935000000    -3.038000000    -1.302000000
H     0.650000000    -3.626000000    -1.845000000
O     2.445000000     3.921000000    -2.669000000
H     2.570000000     3.407000000    -3.467000000
H     3.278000000     4.376000000    -2.545000000
O     3.284000000     2.782000000    -4.943000000
H     2.580000000     2.323000000    -5.402000000
H     3.802000000     2.085000000    -4.541000000
O    -2.570000000     3.745000000     1.943000000
H    -2.705000000     4.510000000     1.384000000
H    -3.263000000     3.135000000     1.688000000
O    -3.070000000     4.549000000    -2.759000000
H    -3.204000000     4.521000000    -3.707000000
H    -2.180000000     4.222000000    -2.634000000
O    -4.257000000     2.716000000     5.720000000
H    -4.754000000     2.578000000     6.526000000
H    -4.877000000     3.140000000     5.126000000
O     2.819000000    -3.761000000     3.445000000
H     3.496000000    -3.095000000     3.325000000
H     2.992000000    -4.125000000     4.313000000
O     4.902000000     0.412000000    -4.559000000
H     4.270000000    -0.306000000    -4.596000000
H     5.700000000     0.050000000    -4.942000000
O     1.765000000     2.491000000    -7.998000000
H     1.680000000     2.038000000    -7.159000000
H     2.261000000     1.885000000    -8.548000000
O     4.581000000    -1.573000000    -1.594000000
H     4.535000000    -0.800000000    -1.031000000
H     3.770000000    -1.549000000    -2.102000000
O    -5.289000000     3.632000000    -1.154000000
H    -5.242000000     3.141000000    -1.974000000
H    -4.531000000     4.215000000    -1.180000000
O     6.398000000    -3.078000000    -4.965000000
H     7.045000000    -2.373000000    -4.990000000
H     5.583000000    -2.645000000    -4.712000000
O    -5.872000000     3.781000000     3.817000000
H    -6.404000000     4.572000000     3.905000000
H    -5.721000000     3.698000000     2.875000000
O     4.736000000    -1.908000000     3.422000000
H     5.325000000    -1.860000000     4.175000000
H     4.972000000    -1.152000000     2.884000000
O    -2.773000000     0.687000000     8.049000000
H    -1.932000000     0.243000000     8.157000000
H    -2.748000000     1.035000000     7.157000000
O     4.722000000    -4.194000000    -0.281000000
H     4.925000000    -4.463000000    -1.177000000
H     4.420000000    -3.290000000    -0.365000000
O     4.743000000     0.787000000     0.008000000
H     4.909000000     0.617000000     0.935000000
H     4.116000000     1.511000000     0.006000000
O     5.818000000     2.041000000    -2.315000000
H     5.541000000     1.538000000    -1.549000000
H     5.584000000     1.489000000    -3.062000000
O    -0.465000000     4.262000000    -6.562000000
H    -0.853000000     3.960000000    -7.383000000
H    -0.403000000     3.474000000    -6.022000000
O    -0.010000000     0.269000000     6.687000000
H     0.302000000     1.023000000     7.187000000
H     0.772000000    -0.264000000     6.544000000
O     3.743000000     1.701000000     5.023000000
H     3.531000000     0.792000000     5.235000000
H     2.921000000     2.175000000     5.153000000
O     0.204000000    -5.054000000     1.228000000
H     0.104000000    -4.220000000     0.769000000
H     0.726000000    -4.840000000     2.002000000
O    -2.768000000     1.047000000    -4.845000000
H    -3.375000000     0.498000000    -4.348000000
H    -3.309000000     1.765000000    -5.173000000
O    -3.396000000    -2.276000000    -2.200000000
H    -2.614000000    -2.077000000    -2.715000000
H    -3.104000000    -2.219000000    -1.290000000
