158
-3055.02019
C    -0.955000000    -0.713000000     0.810000000
H    -1.716000000    -1.164000000     1.442000000
C    -0.853000000     0.686000000     0.713000000
H    -1.520000000     1.263000000     1.348000000
C     0.059000000     1.233000000    -0.193000000
H     0.237000000     2.323000000    -0.291000000
C     1.067000000     0.407000000    -0.742000000
H     1.885000000     0.923000000    -1.239000000
C     0.985000000    -1.032000000    -0.666000000
H     1.690000000    -1.657000000    -1.207000000
C    -0.056000000    -1.542000000     0.078000000
C    -0.217000000    -3.052000000     0.286000000
O     0.545000000    -3.807000000    -0.229000000
O    -1.188000000    -3.588000000     0.763000000
O    -2.416000000    -2.063000000    -2.547000000
H    -2.404000000    -1.111000000    -2.445000000
H    -1.499000000    -2.301000000    -2.681000000
O    -1.199000000     4.202000000     2.709000000
H    -1.041000000     4.941000000     2.122000000
H    -1.907000000     3.711000000     2.292000000
O     0.662000000     6.062000000    -1.604000000
H     1.418000000     6.612000000    -1.399000000
H     1.020000000     5.177000000    -1.673000000
O    -1.867000000     3.487000000    -1.303000000
H    -2.654000000     3.504000000    -1.846000000
H    -2.085000000     4.034000000    -0.548000000
O    -5.281000000    -4.474000000     3.429000000
H    -4.378000000    -4.182000000     3.303000000
H    -5.453000000    -4.325000000     4.358000000
O     4.104000000    -6.719000000    -0.770000000
H     4.111000000    -7.609000000    -1.123000000
H     3.345000000    -6.305000000    -1.179000000
O    -5.639000000     1.520000000     2.203000000
H    -5.351000000     0.711000000     2.627000000
H    -6.465000000     1.737000000     2.637000000
O     0.729000000    -5.803000000     3.064000000
H     0.233000000    -5.656000000     2.259000000
H     1.645000000    -5.731000000     2.797000000
O    -3.646000000     3.612000000     1.985000000
H    -3.980000000     2.788000000     2.340000000
H    -4.420000000     4.169000000     1.904000000
O     3.116000000     4.951000000     4.539000000
H     2.807000000     4.727000000     3.661000000
H     3.371000000     5.871000000     4.476000000
O    -0.003000000    -3.573000000    -3.032000000
H     0.218000000    -4.489000000    -3.195000000
H     0.417000000    -3.370000000    -2.196000000
O     2.476000000     1.272000000     1.987000000
H     1.642000000     1.564000000     1.619000000
H     2.232000000     0.643000000     2.665000000
O     2.725000000     5.394000000     1.847000000
H     2.670000000     6.339000000     1.705000000
H     3.323000000     5.084000000     1.167000000
O     1.803000000    -0.681000000     4.475000000
H     1.985000000    -1.619000000     4.414000000
H     1.148000000    -0.609000000     5.170000000
O     6.436000000     1.087000000    -3.674000000
H     5.632000000     0.595000000    -3.508000000
H     6.137000000     1.921000000    -4.036000000
O     0.195000000     3.277000000    -2.918000000
H    -0.135000000     2.887000000    -3.727000000
H    -0.522000000     3.174000000    -2.292000000
O    -2.771000000    -2.943000000     3.041000000
H    -2.115000000    -3.039000000     2.350000000
H    -2.409000000    -3.427000000     3.783000000
O    -1.139000000     3.699000000     5.470000000
H    -1.676000000     4.413000000     5.814000000
H    -1.111000000     3.854000000     4.526000000
O    -3.375000000    -6.595000000    -1.224000000
H    -3.845000000    -5.762000000    -1.274000000
H    -4.045000000    -7.234000000    -0.982000000
O    -5.737000000    -4.208000000    -0.081000000
H    -4.852000000    -3.853000000    -0.162000000
H    -6.264000000    -3.469000000     0.223000000
O    -1.498000000     0.602000000    -3.755000000
H    -1.941000000     1.297000000    -4.242000000
H    -1.978000000     0.546000000    -2.929000000
O    -5.927000000     1.945000000    -0.724000000
H    -5.268000000     1.283000000    -0.933000000
H    -5.800000000     2.123000000     0.208000000
O    -1.521000000     6.289000000    -0.099000000
H    -0.789000000     6.028000000    -0.659000000
H    -1.360000000     7.213000000     0.090000000
O     5.143000000     2.179000000     2.110000000
H     5.662000000     1.379000000     2.196000000
H     4.237000000     1.874000000     2.068000000
O    -1.015000000     0.989000000     5.719000000
H    -0.125000000     0.888000000     6.056000000
H    -1.074000000     1.912000000     5.472000000
O    -4.727000000    -0.748000000     3.609000000
H    -4.297000000    -1.578000000     3.403000000
H    -4.855000000    -0.773000000     4.557000000
O     0.066000000    -7.322000000    -3.054000000
H    -0.817000000    -7.648000000    -2.881000000
H     0.504000000    -8.044000000    -3.505000000
O    -1.334000000    -6.220000000     0.530000000
H    -1.070000000    -5.320000000     0.335000000
H    -2.190000000    -6.313000000     0.112000000
O    -3.368000000    -2.994000000    -0.336000000
H    -2.592000000    -3.492000000    -0.080000000
H    -3.148000000    -2.634000000    -1.196000000
O     4.270000000    -0.029000000    -2.418000000
H     3.707000000    -0.699000000    -2.806000000
H     4.558000000    -0.409000000    -1.588000000
O    -0.349000000     2.850000000    -5.567000000
H    -1.282000000     2.646000000    -5.629000000
H     0.091000000     2.056000000    -5.869000000
O     3.359000000    -2.382000000    -4.245000000
H     3.935000000    -2.886000000    -3.669000000
H     2.750000000    -3.029000000    -4.600000000
O    -4.496000000     6.730000000    -0.538000000
H    -3.629000000     6.380000000    -0.337000000
H    -4.533000000     7.563000000    -0.068000000
O     4.745000000     2.192000000    -0.676000000
H     4.411000000     1.643000000    -1.385000000
H     4.580000000     1.683000000     0.118000000
O    -2.094000000    -6.198000000     3.738000000
H    -2.381000000    -6.345000000     2.837000000
H    -1.138000000    -6.226000000     3.693000000
O     3.651000000     4.573000000    -0.806000000
H     3.424000000     4.788000000    -1.711000000
H     3.955000000     3.666000000    -0.844000000
O     4.884000000    -3.173000000    -2.193000000
H     5.747000000    -3.415000000    -1.856000000
H     4.308000000    -3.216000000    -1.430000000
O    -4.270000000    -0.525000000     0.376000000
H    -4.145000000    -0.007000000     1.171000000
H    -3.826000000    -1.353000000     0.558000000
O     2.654000000     4.305000000    -3.552000000
H     1.838000000     3.852000000    -3.338000000
H     2.710000000     4.257000000    -4.507000000
O     3.728000000    -5.714000000     1.818000000
H     3.935000000    -6.477000000     2.358000000
H     3.682000000    -6.056000000     0.926000000
O    -1.468000000     6.506000000    -3.476000000
H    -2.180000000     5.867000000    -3.468000000
H    -0.671000000     5.977000000    -3.523000000
O     4.013000000    -0.540000000     0.492000000
H     3.756000000    -1.457000000     0.589000000
H     3.505000000    -0.077000000     1.157000000
O     1.160000000    -3.088000000    -6.009000000
H     1.353000000    -3.888000000    -5.520000000
H     1.128000000    -2.402000000    -5.343000000
O     3.378000000    -3.265000000     0.028000000
H     3.444000000    -3.857000000     0.777000000
H     2.491000000    -3.401000000    -0.307000000
O    -3.108000000     0.686000000    -1.586000000
H    -3.613000000     0.178000000    -0.951000000
H    -2.311000000     0.933000000    -1.116000000
O     1.714000000    -5.641000000    -1.762000000
H     1.201000000    -5.080000000    -1.180000000
H     1.062000000    -6.179000000    -2.211000000
O     3.117000000     1.020000000    -4.733000000
H     3.458000000     1.211000000    -3.860000000
H     2.451000000     0.348000000    -4.589000000
O     1.005000000    -0.775000000    -4.449000000
H     0.373000000    -0.338000000    -3.877000000
H     0.779000000    -0.473000000    -5.328000000
