158
-3014.09039
C     0.491000000     0.870000000    -1.210000000
H     0.839000000     1.591000000    -1.945000000
C     0.592000000     1.123000000     0.147000000
H     1.034000000     2.057000000     0.486000000
C     0.213000000     0.270000000     1.162000000
H     0.300000000     0.571000000     2.181000000
C    -0.300000000    -1.031000000     0.805000000
H    -0.657000000    -1.688000000     1.594000000
C    -0.472000000    -1.274000000    -0.530000000
H    -0.963000000    -2.215000000    -0.765000000
C    -0.154000000    -0.390000000    -1.536000000
C    -0.374000000    -0.744000000    -2.930000000
O     0.185000000    -0.085000000    -3.810000000
O    -1.107000000    -1.711000000    -3.144000000
O     4.439000000     4.618000000     4.207000000
H     4.366000000     4.426000000     3.273000000
H     3.722000000     5.228000000     4.383000000
O    -5.852000000    -0.929000000     0.355000000
H    -5.039000000    -1.048000000    -0.137000000
H    -6.244000000    -1.801000000     0.384000000
O     2.380000000    -3.722000000     1.955000000
H     2.760000000    -4.600000000     1.985000000
H     1.825000000    -3.674000000     2.733000000
O    -0.226000000    -0.576000000     5.601000000
H    -0.098000000    -0.199000000     6.471000000
H    -1.126000000    -0.902000000     5.611000000
O    -1.205000000    -4.170000000     2.814000000
H    -2.102000000    -3.858000000     2.695000000
H    -1.121000000    -4.303000000     3.758000000
O    -3.600000000    -0.144000000    -1.809000000
H    -2.991000000    -0.882000000    -1.845000000
H    -3.375000000     0.390000000    -2.571000000
O     5.489000000    -0.652000000     1.372000000
H     5.301000000    -0.476000000     0.450000000
H     4.629000000    -0.675000000     1.792000000
O    -3.258000000    -3.309000000    -7.582000000
H    -4.140000000    -3.161000000    -7.240000000
H    -2.681000000    -3.151000000    -6.835000000
O     0.641000000    -3.923000000    -4.947000000
H     0.074000000    -3.340000000    -4.443000000
H     0.126000000    -4.722000000    -5.056000000
O     0.173000000     7.103000000     0.458000000
H    -0.247000000     7.578000000    -0.259000000
H     0.128000000     6.184000000     0.196000000
O    -5.381000000    -2.863000000    -3.824000000
H    -5.761000000    -2.012000000    -3.608000000
H    -4.500000000    -2.834000000    -3.452000000
O    -3.157000000    -3.325000000    -2.370000000
H    -2.850000000    -3.907000000    -1.675000000
H    -2.376000000    -2.843000000    -2.641000000
O    -1.857000000     5.842000000     2.510000000
H    -1.842000000     4.885000000     2.522000000
H    -1.183000000     6.084000000     1.875000000
O     0.995000000    -5.666000000    -2.607000000
H     0.870000000    -5.318000000    -1.724000000
H     1.840000000    -5.312000000    -2.886000000
O     4.040000000    -3.079000000    -5.997000000
H     3.406000000    -2.483000000    -5.598000000
H     3.694000000    -3.245000000    -6.874000000
O     0.095000000     2.597000000    -4.924000000
H     0.160000000     1.735000000    -4.513000000
H    -0.277000000     3.159000000    -4.245000000
O    -4.046000000    -4.293000000     1.129000000
H    -3.271000000    -4.020000000     0.638000000
H    -3.972000000    -5.246000000     1.184000000
O     1.632000000     3.065000000     3.016000000
H     2.301000000     3.596000000     2.582000000
H     1.810000000     3.174000000     3.951000000
O     5.244000000     2.236000000    -2.146000000
H     4.873000000     1.428000000    -1.789000000
H     6.143000000     2.004000000    -2.380000000
O    -3.005000000     1.700000000     5.413000000
H    -3.557000000     2.477000000     5.325000000
H    -3.384000000     1.066000000     4.805000000
O     0.390000000    -2.823000000    -7.528000000
H     0.442000000    -3.438000000    -6.796000000
H     0.061000000    -2.013000000    -7.138000000
O    -0.302000000     4.536000000    -0.085000000
H     0.163000000     4.148000000    -0.826000000
H    -0.487000000     3.798000000     0.495000000
O     1.612000000    -3.128000000     6.758000000
H     0.998000000    -3.692000000     6.287000000
H     1.766000000    -2.394000000     6.164000000
O    -2.167000000    -5.332000000    -0.707000000
H    -1.752000000    -5.860000000    -0.025000000
H    -2.774000000    -5.933000000    -1.138000000
O     1.039000000    -4.244000000    -0.381000000
H     1.474000000    -4.065000000     0.453000000
H     0.130000000    -4.425000000    -0.143000000
O     3.137000000    -0.058000000     7.711000000
H     3.001000000    -0.417000000     6.834000000
H     3.162000000     0.890000000     7.580000000
O    -0.889000000     3.338000000     2.436000000
H     0.049000000     3.208000000     2.576000000
H    -1.243000000     2.453000000     2.347000000
O    -1.332000000     4.784000000    -3.175000000
H    -1.795000000     5.566000000    -3.474000000
H    -1.836000000     4.480000000    -2.420000000
O    -0.950000000     3.571000000     5.306000000
H    -1.646000000     2.943000000     5.499000000
H    -0.871000000     3.555000000     4.352000000
O     2.709000000    -1.119000000    -4.138000000
H     3.243000000    -0.338000000    -4.286000000
H     1.841000000    -0.777000000    -3.923000000
O    -2.888000000    -0.233000000    -6.604000000
H    -3.368000000    -0.040000000    -5.798000000
H    -3.487000000    -0.780000000    -7.114000000
O     1.529000000     4.592000000    -2.247000000
H     0.925000000     4.390000000    -2.962000000
H     1.407000000     5.528000000    -2.088000000
O     4.139000000    -0.348000000    -1.274000000
H     4.819000000    -1.011000000    -1.398000000
H     3.317000000    -0.828000000    -1.371000000
O     4.292000000     4.819000000    -2.254000000
H     4.646000000     3.942000000    -2.108000000
H     3.346000000     4.686000000    -2.323000000
O     1.833000000     4.051000000     5.520000000
H     0.893000000     3.877000000     5.475000000
H     1.904000000     5.003000000     5.449000000
O     2.920000000    -2.875000000    -1.946000000
H     2.690000000    -2.304000000    -2.679000000
H     2.081000000    -3.089000000    -1.537000000
O    -2.608000000     1.528000000     0.789000000
H    -3.052000000     2.086000000     0.151000000
H    -2.533000000     0.679000000     0.354000000
O     2.839000000    -0.947000000     2.272000000
H     2.800000000    -1.902000000     2.223000000
H     1.940000000    -0.662000000     2.111000000
O    -1.533000000    -5.847000000    -3.740000000
H    -1.752000000    -6.691000000    -3.346000000
H    -0.706000000    -5.598000000    -3.328000000
O    -0.868000000    -6.579000000     1.248000000
H    -1.175000000    -5.785000000     1.685000000
H    -1.219000000    -7.295000000     1.778000000
O    -2.996000000    -1.798000000     5.903000000
H    -3.534000000    -1.096000000     5.535000000
H    -3.561000000    -2.570000000     5.878000000
O    -0.067000000    -0.470000000    -6.345000000
H     0.011000000    -0.175000000    -5.438000000
H    -1.008000000    -0.587000000    -6.479000000
O     3.218000000     2.686000000     7.249000000
H     2.863000000     3.160000000     6.497000000
H     3.348000000     3.360000000     7.916000000
O    -4.685000000     0.521000000    -4.401000000
H    -5.122000000     1.256000000    -4.831000000
H    -5.378000000     0.089000000    -3.901000000
O     2.420000000    -0.846000000     5.076000000
H     2.650000000    -0.435000000     4.242000000
H     1.506000000    -0.601000000     5.219000000
O     2.233000000     1.568000000    -7.461000000
H     1.493000000     2.104000000    -7.176000000
H     2.547000000     1.147000000    -6.660000000
O     3.509000000     4.636000000     1.674000000
H     3.380000000     4.158000000     0.855000000
H     3.799000000     5.506000000     1.401000000
O    -2.203000000    -3.257000000    -5.181000000
H    -2.440000000    -4.026000000    -4.663000000
H    -1.833000000    -2.644000000    -4.545000000
