158
-3025.03206
C     0.470000000     1.002000000    -0.966000000
H     0.855000000     1.764000000    -1.639000000
C    -0.090000000     1.320000000     0.309000000
H    -0.103000000     2.332000000     0.705000000
C    -0.465000000     0.271000000     1.109000000
H    -0.848000000     0.425000000     2.151000000
C    -0.308000000    -1.027000000     0.707000000
H    -0.633000000    -1.861000000     1.324000000
C     0.179000000    -1.310000000    -0.575000000
H     0.146000000    -2.332000000    -0.943000000
C     0.594000000    -0.303000000    -1.425000000
C     1.132000000    -0.662000000    -2.836000000
O     1.439000000     0.304000000    -3.598000000
O     1.370000000    -1.788000000    -3.206000000
O     0.449000000    -3.401000000    -7.687000000
H     0.639000000    -2.755000000    -7.006000000
H    -0.234000000    -3.954000000    -7.309000000
O     4.473000000     0.301000000    -6.579000000
H     3.531000000     0.470000000    -6.607000000
H     4.824000000     0.772000000    -7.335000000
O     3.270000000     3.458000000    -6.745000000
H     3.906000000     3.358000000    -6.037000000
H     2.423000000     3.501000000    -6.301000000
O    -0.369000000    -4.821000000    -2.269000000
H     0.526000000    -4.485000000    -2.324000000
H    -0.284000000    -5.648000000    -1.793000000
O     4.108000000     1.112000000    -3.542000000
H     4.617000000     0.335000000    -3.311000000
H     3.197000000     0.823000000    -3.501000000
O     1.698000000     4.551000000     4.334000000
H     1.712000000     3.594000000     4.317000000
H     1.235000000     4.798000000     3.533000000
O    -5.277000000     1.716000000     0.394000000
H    -4.854000000     2.573000000     0.340000000
H    -5.648000000     1.577000000    -0.477000000
O     3.498000000    -4.210000000    -0.134000000
H     3.087000000    -3.887000000    -0.936000000
H     2.764000000    -4.398000000     0.452000000
O    -1.722000000     3.242000000     3.938000000
H    -1.807000000     2.294000000     4.037000000
H    -2.597000000     3.535000000     3.681000000
O     2.621000000     3.387000000     1.574000000
H     2.246000000     2.672000000     2.088000000
H     1.982000000     4.096000000     1.647000000
O     5.107000000     2.831000000    -1.588000000
H     5.428000000     2.322000000    -0.844000000
H     4.873000000     2.175000000    -2.244000000
O     5.753000000    -2.083000000    -2.606000000
H     4.898000000    -2.269000000    -2.994000000
H     5.551000000    -1.645000000    -1.779000000
O    -3.351000000     1.086000000     4.404000000
H    -3.999000000     1.030000000     3.701000000
H    -3.840000000     1.420000000     5.156000000
O    -0.615000000    -2.836000000    -4.799000000
H    -1.445000000    -2.417000000    -4.570000000
H    -0.010000000    -2.557000000    -4.112000000
O     0.492000000     5.081000000     1.844000000
H    -0.086000000     4.765000000     1.149000000
H     0.418000000     6.035000000     1.801000000
O    -0.282000000     2.525000000    -3.951000000
H     0.098000000     1.647000000    -3.922000000
H     0.415000000     3.099000000    -3.634000000
O    -5.087000000    -4.069000000     3.003000000
H    -4.497000000    -3.337000000     2.823000000
H    -4.715000000    -4.803000000     2.516000000
O    -1.858000000     5.897000000     4.071000000
H    -1.468000000     5.024000000     4.043000000
H    -1.506000000     6.342000000     3.300000000
O     1.242000000     0.498000000    -6.228000000
H     1.492000000     0.417000000    -5.308000000
H     0.303000000     0.684000000    -6.206000000
O    -1.580000000    -1.236000000     5.125000000
H    -1.969000000    -0.426000000     4.794000000
H    -2.326000000    -1.819000000     5.267000000
O     1.781000000     5.544000000    -1.057000000
H     0.834000000     5.608000000    -0.931000000
H     2.148000000     5.681000000    -0.184000000
O    -1.009000000     5.353000000    -0.511000000
H    -1.061000000     5.880000000    -1.308000000
H    -1.849000000     4.894000000    -0.472000000
O    -3.241000000    -2.193000000     2.503000000
H    -3.359000000    -1.585000000     1.773000000
H    -2.449000000    -1.886000000     2.945000000
O    -2.548000000    -3.522000000    -1.682000000
H    -1.693000000    -3.743000000    -2.049000000
H    -2.951000000    -4.367000000    -1.485000000
O     5.485000000     2.861000000    -5.106000000
H     5.160000000     2.046000000    -4.723000000
H     6.389000000     2.926000000    -4.798000000
O    -2.702000000     2.582000000    -2.764000000
H    -3.182000000     3.073000000    -3.430000000
H    -1.849000000     2.409000000    -3.163000000
O    -3.736000000     4.467000000    -0.715000000
H    -3.563000000     3.604000000    -1.090000000
H    -4.453000000     4.819000000    -1.243000000
O     3.818000000    -1.789000000    -4.695000000
H     3.735000000    -1.033000000    -5.277000000
H     2.968000000    -1.851000000    -4.260000000
O    -3.895000000     4.036000000     2.364000000
H    -3.270000000     4.261000000     1.675000000
H    -4.687000000     4.524000000     2.138000000
O    -4.144000000    -1.718000000    -0.482000000
H    -3.919000000    -1.008000000    -1.083000000
H    -3.804000000    -2.507000000    -0.905000000
O     2.162000000    -4.123000000    -2.793000000
H     1.727000000    -3.271000000    -2.811000000
H     2.131000000    -4.428000000    -3.699000000
O    -5.649000000     1.031000000     2.939000000
H    -5.561000000     1.248000000     2.011000000
H    -6.289000000     1.661000000     3.272000000
O     2.710000000     0.334000000     7.297000000
H     3.281000000    -0.337000000     7.671000000
H     1.974000000    -0.155000000     6.929000000
O     3.553000000     0.682000000     4.308000000
H     4.219000000     0.365000000     4.918000000
H     2.723000000     0.396000000     4.689000000
O     4.511000000    -0.352000000    -0.884000000
H     3.935000000    -0.529000000    -0.140000000
H     5.143000000     0.286000000    -0.551000000
O     3.483000000    -0.639000000     1.716000000
H     2.531000000    -0.542000000     1.720000000
H     3.787000000    -0.052000000     2.407000000
O     1.036000000    -4.412000000     1.244000000
H     0.773000000    -4.444000000     2.163000000
H     0.558000000    -5.131000000     0.832000000
O     0.776000000    -0.089000000     4.852000000
H     0.523000000     0.743000000     5.251000000
H     0.065000000    -0.689000000     5.077000000
O    -3.894000000    -2.528000000     5.404000000
H    -4.709000000    -2.025000000     5.380000000
H    -4.032000000    -3.238000000     4.776000000
O     4.206000000     5.146000000    -2.483000000
H     4.370000000     4.269000000    -2.136000000
H     3.603000000     5.543000000    -1.855000000
O    -1.451000000     0.446000000    -5.965000000
H    -1.793000000     0.193000000    -5.108000000
H    -1.977000000     1.205000000    -6.219000000
O    -4.102000000     0.328000000    -2.181000000
H    -4.976000000     0.611000000    -2.450000000
H    -3.588000000     1.134000000    -2.149000000
O    -2.162000000    -4.983000000     1.151000000
H    -2.087000000    -4.075000000     0.858000000
H    -2.935000000    -5.318000000     0.697000000
O     1.340000000    -5.025000000    -5.149000000
H     0.889000000    -5.867000000    -5.213000000
H     0.645000000    -4.373000000    -5.240000000
O    -0.320000000     2.137000000     6.731000000
H    -1.103000000     2.508000000     6.325000000
H    -0.333000000     2.474000000     7.627000000
O     1.665000000     4.654000000    -3.931000000
H     2.468000000     4.980000000    -3.525000000
H     0.962000000     5.123000000    -3.483000000
O    -0.912000000     4.284000000    -6.107000000
H    -0.409000000     3.680000000    -5.559000000
H    -1.134000000     3.772000000    -6.885000000
O    -2.932000000    -1.450000000    -3.775000000
H    -2.947000000    -2.103000000    -3.075000000
H    -3.307000000    -0.664000000    -3.376000000
