158
-3050.10779
C     0.498000000    -0.009000000    -1.420000000
H     0.980000000     0.046000000    -2.393000000
C     1.133000000     0.653000000    -0.343000000
H     2.084000000     1.170000000    -0.442000000
C     0.556000000     0.672000000     0.920000000
H     0.908000000     1.326000000     1.730000000
C    -0.661000000    -0.040000000     1.090000000
H    -1.136000000    -0.086000000     2.067000000
C    -1.160000000    -0.819000000     0.054000000
H    -2.008000000    -1.488000000     0.169000000
C    -0.653000000    -0.808000000    -1.263000000
C    -1.091000000    -1.781000000    -2.293000000
O    -0.647000000    -1.607000000    -3.419000000
O    -1.853000000    -2.621000000    -1.935000000
O    -3.902000000     0.893000000    -2.899000000
H    -3.948000000     0.099000000    -3.432000000
H    -4.617000000     0.800000000    -2.270000000
O    -3.324000000     2.938000000     6.229000000
H    -2.803000000     2.630000000     5.488000000
H    -2.812000000     3.655000000     6.601000000
O     5.203000000     3.933000000     2.600000000
H     4.953000000     4.528000000     1.893000000
H     5.273000000     4.495000000     3.373000000
O    -5.996000000    -2.922000000     1.080000000
H    -5.942000000    -2.666000000     0.159000000
H    -6.706000000    -3.563000000     1.109000000
O    -0.862000000    -4.123000000    -0.226000000
H    -1.396000000    -3.533000000    -0.758000000
H    -1.103000000    -3.916000000     0.677000000
O    -1.635000000    -4.239000000     2.729000000
H    -2.387000000    -4.750000000     2.429000000
H    -1.987000000    -3.680000000     3.422000000
O     0.392000000     6.163000000     1.789000000
H     1.107000000     5.580000000     2.042000000
H     0.574000000     6.382000000     0.875000000
O    -4.431000000    -1.854000000    -1.347000000
H    -3.588000000    -2.191000000    -1.649000000
H    -4.223000000    -1.005000000    -0.955000000
O     5.386000000    -1.411000000     3.338000000
H     5.761000000    -1.867000000     2.585000000
H     5.151000000    -0.546000000     3.002000000
O     1.054000000     6.105000000    -0.917000000
H     0.460000000     6.465000000    -1.576000000
H     0.873000000     5.165000000    -0.918000000
O    -6.221000000    -3.216000000    -3.425000000
H    -6.660000000    -4.041000000    -3.218000000
H    -5.616000000    -3.077000000    -2.696000000
O     4.106000000    -0.515000000    -5.176000000
H     4.657000000    -1.287000000    -5.303000000
H     3.348000000    -0.839000000    -4.691000000
O    -2.743000000    -4.190000000    -3.859000000
H    -2.507000000    -4.984000000    -3.380000000
H    -2.473000000    -3.474000000    -3.284000000
O    -4.068000000     1.759000000     0.611000000
H    -3.635000000     0.981000000     0.962000000
H    -3.391000000     2.436000000     0.626000000
O    -1.027000000    -7.143000000    -4.352000000
H    -1.026000000    -6.610000000    -3.558000000
H    -0.731000000    -8.006000000    -4.062000000
O    -1.118000000     0.474000000    -5.046000000
H    -1.235000000    -0.329000000    -4.538000000
H    -0.927000000     1.146000000    -4.392000000
O     1.781000000     2.640000000    -6.350000000
H     1.122000000     1.984000000    -6.579000000
H     2.617000000     2.223000000    -6.559000000
O     2.125000000     4.454000000     2.852000000
H     2.937000000     4.211000000     3.297000000
H     1.650000000     3.629000000     2.752000000
O     5.466000000     0.475000000    -0.274000000
H     5.123000000    -0.266000000    -0.774000000
H     6.381000000     0.544000000    -0.547000000
O    -3.373000000     1.323000000    -6.809000000
H    -2.485000000     1.206000000    -6.472000000
H    -3.303000000     2.054000000    -7.423000000
O    -1.550000000     5.174000000     5.344000000
H    -1.817000000     5.614000000     4.537000000
H    -1.161000000     5.867000000     5.877000000
O     2.154000000    -2.289000000    -3.771000000
H     1.263000000    -1.940000000    -3.754000000
H     2.039000000    -3.239000000    -3.804000000
O    -4.322000000    -0.034000000     5.874000000
H    -3.739000000     0.372000000     5.233000000
H    -5.168000000     0.390000000     5.732000000
O     3.776000000     5.364000000     0.624000000
H     3.196000000     5.944000000     0.130000000
H     3.188000000     4.861000000     1.188000000
O    -0.634000000    -4.048000000    -8.225000000
H    -0.513000000    -3.211000000    -7.778000000
H    -0.710000000    -3.816000000    -9.151000000
O     0.627000000     3.530000000    -1.610000000
H    -0.128000000     3.119000000    -2.031000000
H     1.379000000     3.224000000    -2.116000000
O    -1.365000000    -5.925000000    -2.116000000
H    -0.765000000    -5.483000000    -1.515000000
H    -2.061000000    -6.263000000    -1.552000000
O     3.588000000    -1.843000000     5.598000000
H     4.087000000    -2.625000000     5.833000000
H     4.036000000    -1.496000000     4.826000000
O    -2.839000000     1.466000000     3.898000000
H    -3.757000000     1.717000000     3.799000000
H    -2.638000000     0.975000000     3.101000000
O    -1.412000000     2.588000000    -3.053000000
H    -1.682000000     3.191000000    -3.745000000
H    -2.181000000     2.039000000    -2.899000000
O     0.959000000     2.026000000     4.098000000
H     1.344000000     1.158000000     4.221000000
H     0.062000000     1.938000000     4.420000000
O    -0.042000000    -3.835000000    -5.067000000
H    -0.767000000    -4.345000000    -4.705000000
H    -0.142000000    -2.966000000    -4.677000000
O     4.371000000    -1.573000000    -1.663000000
H     4.128000000    -1.953000000    -2.507000000
H     3.803000000    -2.013000000    -1.030000000
O     2.503000000     4.214000000    -3.830000000
H     2.326000000     3.672000000    -4.599000000
H     1.807000000     4.871000000    -3.835000000
O     0.849000000     3.524000000     6.561000000
H     1.519000000     3.375000000     5.894000000
H     0.176000000     4.038000000     6.114000000
O     1.412000000    -4.375000000    -1.766000000
H     1.540000000    -3.437000000    -1.626000000
H     0.856000000    -4.653000000    -1.039000000
O    -3.957000000    -0.739000000     1.763000000
H    -4.802000000    -0.473000000     2.126000000
H    -4.001000000    -1.694000000     1.729000000
O     2.199000000    -2.293000000     0.222000000
H     1.961000000    -2.534000000     1.118000000
H     1.870000000    -1.400000000     0.119000000
O    -4.467000000    -6.108000000    -5.110000000
H    -4.370000000    -5.386000000    -4.490000000
H    -3.627000000    -6.145000000    -5.568000000
O     1.152000000    -0.609000000     4.524000000
H     0.725000000    -1.144000000     5.193000000
H     2.087000000    -0.772000000     4.647000000
O    -2.705000000    -2.517000000     4.817000000
H    -2.993000000    -1.612000000     4.703000000
H    -3.501000000    -2.994000000     5.051000000
O    -0.726000000    -1.480000000    -7.102000000
H    -0.534000000    -0.734000000    -6.534000000
H    -1.516000000    -1.870000000    -6.727000000
O    -4.826000000    -1.206000000    -4.678000000
H    -5.135000000    -0.360000000    -5.002000000
H    -5.578000000    -1.572000000    -4.211000000
O     0.854000000    -2.724000000     2.632000000
H    -0.039000000    -3.068000000     2.662000000
H     0.802000000    -1.882000000     3.084000000
O     1.784000000    -1.481000000    -8.446000000
H     1.254000000    -1.623000000    -7.662000000
H     2.314000000    -2.275000000    -8.524000000
O     4.764000000     0.879000000     2.277000000
H     4.959000000     0.765000000     1.347000000
H     4.502000000     1.796000000     2.357000000
O    -2.939000000    -2.900000000    -6.199000000
H    -3.558000000    -2.348000000    -5.720000000
H    -2.853000000    -3.686000000    -5.660000000
O    -1.845000000     3.466000000     0.611000000
H    -1.341000000     2.779000000     0.174000000
H    -1.193000000     3.973000000     1.093000000
