158
-3043.50953
C     0.665000000     1.209000000    -0.548000000
H     1.216000000     2.105000000    -0.820000000
C     0.748000000     0.736000000     0.771000000
H     1.355000000     1.213000000     1.537000000
C    -0.023000000    -0.341000000     1.173000000
H     0.029000000    -0.710000000     2.174000000
C    -0.754000000    -1.032000000     0.232000000
H    -1.335000000    -1.896000000     0.543000000
C    -0.784000000    -0.576000000    -1.052000000
H    -1.463000000    -1.119000000    -1.704000000
C    -0.066000000     0.516000000    -1.476000000
C    -0.025000000     0.978000000    -2.901000000
O     0.490000000     2.047000000    -3.219000000
O    -0.446000000     0.294000000    -3.813000000
O    -0.974000000     6.550000000    -4.139000000
H    -1.414000000     6.322000000    -3.319000000
H    -0.078000000     6.763000000    -3.879000000
O     3.194000000     0.407000000     3.182000000
H     3.861000000     0.024000000     2.612000000
H     3.691000000     0.909000000     3.828000000
O    -3.411000000     0.951000000    -3.161000000
H    -3.702000000     0.445000000    -3.920000000
H    -2.719000000     1.517000000    -3.503000000
O    -1.102000000    -3.243000000     7.460000000
H    -1.009000000    -2.439000000     6.949000000
H    -1.681000000    -3.002000000     8.183000000
O     1.795000000     4.586000000     0.123000000
H     1.826000000     5.523000000     0.318000000
H     2.347000000     4.184000000     0.794000000
O    -5.502000000    -2.719000000    -2.608000000
H    -4.574000000    -2.929000000    -2.716000000
H    -5.631000000    -1.927000000    -3.128000000
O    -4.773000000    -0.193000000     1.047000000
H    -4.837000000     0.218000000     1.909000000
H    -5.004000000    -1.109000000     1.201000000
O     2.290000000    -1.817000000     4.505000000
H     2.763000000    -2.448000000     3.962000000
H     2.380000000    -0.986000000     4.039000000
O    -5.272000000     1.266000000    -1.136000000
H    -4.564000000     1.068000000    -1.749000000
H    -5.274000000     0.528000000    -0.526000000
O    -0.944000000     4.450000000    -0.068000000
H    -1.285000000     3.566000000     0.070000000
H     0.005000000     4.334000000    -0.117000000
O     5.070000000    -1.318000000    -2.787000000
H     5.351000000    -0.458000000    -3.096000000
H     4.114000000    -1.265000000    -2.766000000
O    -4.467000000    -1.015000000    -4.883000000
H    -4.593000000    -1.945000000    -5.068000000
H    -5.332000000    -0.625000000    -5.011000000
O     1.373000000     1.479000000     7.293000000
H     0.427000000     1.465000000     7.437000000
H     1.471000000     1.652000000     6.357000000
O     0.330000000    -4.781000000    -2.551000000
H    -0.266000000    -5.469000000    -2.848000000
H     0.245000000    -4.786000000    -1.597000000
O    -4.302000000    -2.243000000     4.503000000
H    -3.804000000    -2.695000000     3.823000000
H    -5.051000000    -2.815000000     4.673000000
O     0.310000000    -1.142000000     6.398000000
H     0.890000000    -1.262000000     7.150000000
H     0.871000000    -1.290000000     5.637000000
O     0.556000000    -0.101000000    -6.345000000
H     0.228000000     0.122000000    -5.474000000
H    -0.211000000    -0.433000000    -6.812000000
O    -3.225000000    -5.334000000     0.509000000
H    -4.109000000    -5.093000000     0.235000000
H    -3.216000000    -6.291000000     0.475000000
O     2.241000000     4.091000000    -7.747000000
H     2.972000000     3.593000000    -8.113000000
H     1.943000000     3.567000000    -7.004000000
O     3.733000000     0.952000000    -6.929000000
H     3.480000000     1.309000000    -6.077000000
H     3.190000000     0.171000000    -7.032000000
O    -0.265000000    -3.331000000    -6.735000000
H    -0.524000000    -2.864000000    -5.940000000
H    -0.964000000    -3.144000000    -7.361000000
O    -1.196000000    -5.511000000     3.841000000
H    -0.497000000    -4.881000000     3.665000000
H    -1.427000000    -5.362000000     4.758000000
O    -3.135000000    -3.630000000    -3.299000000
H    -2.225000000    -3.461000000    -3.541000000
H    -3.204000000    -4.584000000    -3.277000000
O    -2.875000000    -3.545000000     2.487000000
H    -3.261000000    -4.194000000     1.898000000
H    -2.045000000    -3.935000000     2.760000000
O     0.636000000    -3.971000000     2.339000000
H     1.125000000    -3.253000000     1.938000000
H     0.440000000    -4.563000000     1.612000000
O    -1.232000000     1.315000000     7.609000000
H    -1.604000000     0.796000000     6.896000000
H    -1.407000000     0.799000000     8.397000000
O     2.503000000    -3.080000000    -2.099000000
H     2.467000000    -2.386000000    -2.757000000
H     2.138000000    -3.847000000    -2.540000000
O     1.559000000     2.353000000    -5.622000000
H     1.308000000     2.360000000    -4.699000000
H     0.919000000     1.777000000    -6.040000000
O    -3.427000000    -0.493000000     6.227000000
H    -3.770000000    -0.995000000     5.489000000
H    -3.995000000    -0.727000000     6.961000000
O     1.069000000     2.352000000     4.633000000
H     0.375000000     1.918000000     4.137000000
H     1.858000000     2.217000000     4.108000000
O    -1.827000000    -0.135000000    -7.944000000
H    -1.738000000     0.776000000    -7.664000000
H    -1.459000000    -0.152000000    -8.827000000
O    -2.374000000     6.344000000    -1.486000000
H    -1.910000000     5.668000000    -0.993000000
H    -3.206000000     6.448000000    -1.024000000
O     5.261000000     3.612000000    -2.816000000
H     4.349000000     3.448000000    -2.577000000
H     5.517000000     4.364000000    -2.282000000
O     3.433000000     6.007000000    -4.345000000
H     3.845000000     6.152000000    -5.197000000
H     3.488000000     5.060000000    -4.211000000
O    -0.413000000    -5.361000000    -0.062000000
H    -0.442000000    -6.316000000    -0.114000000
H    -1.304000000    -5.083000000    -0.273000000
O     2.528000000    -2.224000000     0.972000000
H     2.892000000    -2.579000000     0.162000000
H     1.720000000    -1.788000000     0.701000000
O     0.047000000     4.562000000     6.088000000
H     0.434000000     3.836000000     5.598000000
H    -0.861000000     4.294000000     6.234000000
O    -2.207000000     1.828000000     0.570000000
H    -1.666000000     1.131000000     0.198000000
H    -3.107000000     1.534000000     0.427000000
O     3.867000000    -3.770000000     2.950000000
H     3.643000000    -3.037000000     2.377000000
H     3.300000000    -4.484000000     2.660000000
O     0.969000000    -4.214000000     5.924000000
H     1.376000000    -3.378000000     5.696000000
H     0.375000000    -4.001000000     6.644000000
O     2.011000000    -6.245000000     4.498000000
H     1.066000000    -6.368000000     4.400000000
H     2.102000000    -5.361000000     4.852000000
O    -1.787000000     3.024000000    -7.303000000
H    -1.600000000     3.176000000    -6.376000000
H    -2.195000000     3.837000000    -7.601000000
O    -1.202000000     3.830000000    -4.729000000
H    -0.860000000     3.505000000    -3.897000000
H    -0.965000000     4.758000000    -4.739000000
O    -2.220000000     3.495000000     2.866000000
H    -2.068000000     3.010000000     2.055000000
H    -2.390000000     2.819000000     3.521000000
O    -1.763000000     0.723000000     4.176000000
H    -1.787000000     0.050000000     3.495000000
H    -2.410000000     0.434000000     4.820000000
O     2.526000000     3.503000000    -2.663000000
H     1.798000000     3.056000000    -3.093000000
H     2.145000000     3.869000000    -1.865000000
O     2.598000000    -0.661000000    -3.855000000
H     2.286000000     0.205000000    -3.593000000
H     1.971000000    -0.952000000    -4.517000000
O    -1.368000000    -1.931000000    -4.701000000
H    -2.303000000    -1.800000000    -4.543000000
H    -0.943000000    -1.213000000    -4.232000000
