158
-3025.46435
C     1.257000000    -0.125000000    -0.667000000
H     2.218000000    -0.464000000    -1.044000000
C     1.088000000     0.243000000     0.656000000
H     1.918000000     0.338000000     1.350000000
C    -0.179000000     0.415000000     1.132000000
H    -0.391000000     0.538000000     2.234000000
C    -1.302000000     0.235000000     0.318000000
H    -2.303000000     0.203000000     0.741000000
C    -1.097000000    -0.102000000    -1.024000000
H    -1.930000000    -0.443000000    -1.633000000
C     0.179000000    -0.355000000    -1.529000000
C     0.512000000    -1.022000000    -2.822000000
O     1.621000000    -0.863000000    -3.259000000
O    -0.358000000    -1.566000000    -3.455000000
O     3.255000000    -0.693000000     5.376000000
H     3.352000000    -0.408000000     6.285000000
H     4.143000000    -0.917000000     5.100000000
O    -2.791000000    -1.542000000    -4.695000000
H    -2.699000000    -1.326000000    -5.623000000
H    -1.914000000    -1.419000000    -4.332000000
O    -3.201000000     0.248000000     6.386000000
H    -3.973000000     0.015000000     6.902000000
H    -3.248000000    -0.319000000     5.616000000
O    -2.367000000     3.096000000     0.643000000
H    -2.036000000     3.765000000     1.243000000
H    -1.687000000     3.016000000    -0.025000000
O     1.780000000    -3.757000000     3.096000000
H     1.904000000    -4.538000000     3.636000000
H     2.644000000    -3.348000000     3.064000000
O    -5.248000000    -0.553000000    -3.664000000
H    -4.515000000    -1.119000000    -3.907000000
H    -5.669000000    -0.337000000    -4.496000000
O    -0.720000000     2.768000000    -3.548000000
H    -0.735000000     3.667000000    -3.876000000
H    -0.646000000     2.860000000    -2.599000000
O     3.270000000     3.574000000    -0.328000000
H     3.568000000     2.820000000    -0.838000000
H     3.832000000     4.294000000    -0.615000000
O     2.515000000     1.533000000     3.832000000
H     1.973000000     2.316000000     3.932000000
H     2.365000000     1.034000000     4.636000000
O     1.676000000     5.238000000     1.242000000
H     2.292000000     5.966000000     1.165000000
H     2.069000000     4.535000000     0.725000000
O     3.125000000    -4.834000000    -4.917000000
H     2.586000000    -4.140000000    -4.537000000
H     3.983000000    -4.723000000    -4.507000000
O    -3.311000000    -4.313000000    -1.881000000
H    -3.851000000    -3.632000000    -1.479000000
H    -2.433000000    -3.931000000    -1.918000000
O     2.297000000    -0.098000000    -5.636000000
H     2.075000000    -0.473000000    -4.784000000
H     2.665000000     0.761000000    -5.431000000
O    -3.933000000    -4.120000000    -4.469000000
H    -3.756000000    -4.290000000    -3.543000000
H    -3.594000000    -3.237000000    -4.619000000
O    -5.011000000    -2.214000000    -0.648000000
H    -5.051000000    -1.258000000    -0.667000000
H    -5.752000000    -2.496000000    -1.185000000
O     4.067000000    -2.174000000     2.505000000
H     4.266000000    -1.247000000     2.634000000
H     4.922000000    -2.589000000     2.393000000
O    -1.034000000     1.512000000     4.422000000
H    -1.687000000     1.256000000     3.770000000
H    -0.487000000     2.157000000     3.973000000
O    -4.011000000    -0.679000000     3.999000000
H    -3.961000000    -1.115000000     3.148000000
H    -3.867000000     0.247000000     3.803000000
O     4.918000000     0.422000000     3.001000000
H     5.375000000     1.223000000     3.254000000
H     4.006000000     0.578000000     3.247000000
O     4.769000000    -0.238000000    -0.429000000
H     5.582000000    -0.414000000     0.044000000
H     4.294000000    -1.069000000    -0.407000000
O    -1.375000000     5.803000000     1.113000000
H    -1.295000000     6.751000000     1.009000000
H    -0.472000000     5.493000000     1.187000000
O     3.674000000    -2.608000000    -3.275000000
H     3.824000000    -2.637000000    -2.330000000
H     2.906000000    -2.045000000    -3.379000000
O    -2.909000000    -3.765000000     4.569000000
H    -3.346000000    -2.915000000     4.531000000
H    -1.999000000    -3.558000000     4.781000000
O    -4.414000000    -2.190000000     1.959000000
H    -4.450000000    -3.088000000     2.288000000
H    -4.608000000    -2.269000000     1.025000000
O     1.670000000    -4.516000000    -1.775000000
H     1.082000000    -4.106000000    -1.140000000
H     2.535000000    -4.464000000    -1.369000000
O    -1.939000000     2.360000000     7.149000000
H    -1.384000000     2.614000000     6.411000000
H    -2.338000000     1.534000000     6.876000000
O    -5.351000000     0.546000000    -0.503000000
H    -4.734000000     1.226000000    -0.231000000
H    -5.664000000     0.836000000    -1.360000000
O     1.138000000     3.403000000     6.300000000
H     0.870000000     3.751000000     5.449000000
H     0.823000000     4.048000000     6.933000000
O    -6.396000000     0.210000000     2.274000000
H    -6.947000000    -0.331000000     1.708000000
H    -5.510000000     0.086000000     1.935000000
O     0.118000000     3.451000000    -0.744000000
H     0.681000000     4.029000000    -1.258000000
H     0.721000000     2.974000000    -0.174000000
O    -0.676000000    -5.844000000    -2.275000000
H    -0.220000000    -5.871000000    -3.116000000
H    -0.178000000    -5.214000000    -1.753000000
O     1.392000000     0.857000000     7.744000000
H     0.602000000     0.519000000     7.321000000
H     1.478000000     1.751000000     7.412000000
O    -0.315000000     0.788000000    -6.007000000
H     0.476000000     0.258000000    -5.909000000
H    -0.362000000     1.302000000    -5.201000000
O     4.936000000     1.970000000    -2.151000000
H     5.812000000     1.741000000    -2.461000000
H     4.709000000     1.273000000    -1.536000000
O    -3.239000000     1.812000000     2.954000000
H    -2.858000000     2.054000000     2.109000000
H    -3.876000000     2.503000000     3.135000000
O     0.486000000    -3.319000000     0.626000000
H     0.360000000    -2.388000000     0.444000000
H     0.788000000    -3.347000000     1.534000000
O     3.081000000     4.622000000     3.975000000
H     3.767000000     4.452000000     3.330000000
H     3.547000000     4.692000000     4.808000000
O    -3.994000000     1.814000000    -3.878000000
H    -3.292000000     1.867000000    -3.230000000
H    -4.387000000     0.953000000    -3.736000000
O     3.996000000    -2.840000000    -0.657000000
H     4.928000000    -3.018000000    -0.783000000
H     3.803000000    -3.181000000     0.216000000
O    -0.305000000    -3.308000000     4.803000000
H     0.381000000    -3.390000000     4.140000000
H    -0.038000000    -2.555000000     5.331000000
O     0.647000000    -2.467000000    -7.784000000
H     0.599000000    -2.904000000    -6.934000000
H     0.008000000    -2.929000000    -8.327000000
O     0.410000000     3.657000000     3.157000000
H     0.097000000     3.904000000     2.287000000
H     1.244000000     4.117000000     3.251000000
O     0.386000000    -0.416000000     5.565000000
H     0.007000000     0.286000000     5.036000000
H     1.304000000    -0.450000000     5.295000000
O     3.587000000    -2.188000000    -7.939000000
H     3.523000000    -1.744000000    -7.093000000
H     2.954000000    -2.904000000    -7.881000000
O     2.747000000     2.487000000    -3.757000000
H     2.034000000     1.884000000    -3.545000000
H     3.499000000     2.150000000    -3.269000000
O     5.488000000    -2.155000000    -5.125000000
H     6.052000000    -2.928000000    -5.138000000
H     4.809000000    -2.365000000    -4.483000000
O    -4.959000000     3.373000000    -0.600000000
H    -5.059000000     4.318000000    -0.715000000
H    -4.062000000     3.264000000    -0.284000000
O     0.373000000    -3.234000000    -5.295000000
H     0.364000000    -4.082000000    -4.850000000
H     0.015000000    -2.622000000    -4.651000000
