158
-3005.44084
C     0.945000000     0.698000000    -0.848000000
H     1.627000000     1.399000000    -1.321000000
C     0.853000000     0.744000000     0.583000000
H     1.568000000     1.285000000     1.197000000
C    -0.058000000     0.020000000     1.219000000
H    -0.211000000     0.162000000     2.199000000
C    -0.962000000    -0.766000000     0.494000000
H    -1.706000000    -1.405000000     0.962000000
C    -0.931000000    -0.686000000    -0.895000000
H    -1.656000000    -1.301000000    -1.422000000
C     0.041000000     0.027000000    -1.566000000
C     0.043000000     0.099000000    -3.127000000
O     0.929000000     0.636000000    -3.771000000
O    -0.822000000    -0.509000000    -3.687000000
O    -0.678000000     2.614000000    -4.592000000
H    -1.346000000     2.730000000    -3.916000000
H    -0.130000000     1.899000000    -4.268000000
O     1.236000000     1.233000000     5.232000000
H     1.369000000     0.289000000     5.314000000
H     2.111000000     1.608000000     5.328000000
O    -3.810000000    -0.775000000    -4.138000000
H    -3.785000000    -0.938000000    -5.081000000
H    -3.062000000    -0.201000000    -3.975000000
O     2.619000000    -4.142000000     5.112000000
H     2.604000000    -4.936000000     5.646000000
H     2.543000000    -4.457000000     4.211000000
O     0.372000000     3.940000000    -1.606000000
H     0.985000000     3.496000000    -2.192000000
H     0.930000000     4.357000000    -0.949000000
O    -4.068000000    -0.945000000     2.652000000
H    -5.024000000    -0.894000000     2.644000000
H    -3.841000000    -1.315000000     1.798000000
O     1.570000000    -1.398000000     5.494000000
H     2.016000000    -2.213000000     5.261000000
H     1.702000000    -1.314000000     6.438000000
O    -5.096000000     0.814000000    -1.774000000
H    -4.406000000     0.420000000    -2.306000000
H    -4.638000000     1.171000000    -1.013000000
O    -2.000000000     2.134000000    -1.975000000
H    -2.266000000     1.851000000    -1.100000000
H    -1.250000000     2.710000000    -1.823000000
O     4.106000000     3.163000000     2.296000000
H     3.702000000     3.255000000     3.159000000
H     4.248000000     2.221000000     2.198000000
O     5.732000000     0.706000000    -5.080000000
H     5.143000000     1.240000000    -4.546000000
H     5.677000000    -0.169000000    -4.694000000
O     3.646000000     2.441000000     4.990000000
H     3.731000000     3.040000000     5.732000000
H     4.120000000     1.655000000     5.261000000
O     0.541000000    -4.776000000    -1.967000000
H     0.158000000    -4.801000000    -2.844000000
H    -0.188000000    -4.539000000    -1.394000000
O     1.124000000    -0.263000000    -6.617000000
H     0.805000000     0.455000000    -6.069000000
H     0.725000000    -1.047000000    -6.240000000
O    -1.104000000    -4.981000000    -4.120000000
H    -1.186000000    -5.634000000    -4.814000000
H    -1.596000000    -5.349000000    -3.385000000
O     0.333000000     5.321000000     4.389000000
H     0.085000000     4.460000000     4.054000000
H     0.257000000     5.904000000     3.634000000
O    -3.775000000    -3.476000000    -1.532000000
H    -4.318000000    -2.834000000    -1.074000000
H    -4.337000000    -4.247000000    -1.617000000
O     5.055000000    -1.095000000     2.979000000
H     5.023000000    -1.982000000     2.621000000
H     4.914000000    -1.211000000     3.918000000
O     2.821000000     2.683000000    -6.482000000
H     3.518000000     3.340000000    -6.471000000
H     3.241000000     1.895000000    -6.826000000
O     1.796000000    -3.768000000    -6.604000000
H     1.308000000    -4.506000000    -6.970000000
H     1.120000000    -3.163000000    -6.298000000
O    -2.710000000     3.903000000     4.164000000
H    -2.018000000     3.719000000     4.800000000
H    -3.412000000     3.293000000     4.391000000
O     5.233000000     0.904000000     0.955000000
H     5.161000000     0.124000000     1.505000000
H     6.173000000     1.005000000     0.804000000
O    -6.199000000    -1.715000000    -2.928000000
H    -5.379000000    -1.505000000    -3.375000000
H    -6.858000000    -1.181000000    -3.373000000
O    -5.437000000    -3.913000000     3.205000000
H    -4.496000000    -3.987000000     3.048000000
H    -5.604000000    -2.970000000     3.220000000
O    -2.393000000    -3.790000000     2.612000000
H    -1.717000000    -3.371000000     3.144000000
H    -1.940000000    -4.046000000     1.808000000
O     2.609000000    -3.101000000    -1.840000000
H     2.549000000    -2.830000000    -0.924000000
H     1.818000000    -3.619000000    -1.989000000
O    -4.882000000    -1.516000000    -0.138000000
H    -5.786000000    -1.537000000     0.177000000
H    -4.938000000    -1.103000000    -1.000000000
O     0.386000000     3.569000000    -6.892000000
H    -0.105000000     3.483000000    -6.075000000
H     1.290000000     3.364000000    -6.651000000
O     2.379000000     5.120000000     0.644000000
H     2.987000000     4.645000000     1.210000000
H     2.907000000     5.819000000     0.258000000
O    -1.650000000     2.351000000     6.542000000
H    -1.602000000     1.978000000     7.423000000
H    -0.808000000     2.130000000     6.143000000
O     4.446000000     1.677000000    -1.693000000
H     4.376000000     1.455000000    -0.764000000
H     4.799000000     0.887000000    -2.102000000
O     3.104000000     5.515000000    -3.115000000
H     2.918000000     4.605000000    -3.348000000
H     2.774000000     6.024000000    -3.855000000
O    -4.438000000     1.884000000     4.197000000
H    -4.723000000     1.354000000     3.453000000
H    -4.876000000     1.492000000     4.952000000
O     5.228000000    -0.764000000    -2.206000000
H     4.387000000    -0.851000000    -2.654000000
H     5.650000000    -1.615000000    -2.323000000
O    -1.787000000    -4.548000000     0.061000000
H    -1.831000000    -5.504000000     0.066000000
H    -2.579000000    -4.273000000    -0.399000000
O     2.102000000    -2.191000000     0.650000000
H     2.218000000    -2.280000000     1.596000000
H     1.410000000    -1.536000000     0.554000000
O     0.204000000     2.860000000     3.244000000
H     0.205000000     2.401000000     2.404000000
H     0.715000000     2.297000000     3.826000000
O     6.827000000     2.925000000    -2.079000000
H     5.898000000     2.697000000    -2.061000000
H     6.961000000     3.317000000    -2.942000000
O    -3.117000000     1.528000000     0.351000000
H    -2.283000000     1.148000000     0.626000000
H    -3.701000000     1.389000000     1.096000000
O     2.239000000    -4.807000000     2.171000000
H     3.166000000    -4.979000000     2.332000000
H     2.208000000    -4.481000000     1.272000000
O    -0.647000000    -2.628000000     4.405000000
H     0.226000000    -2.318000000     4.646000000
H    -1.230000000    -1.904000000     4.634000000
O    -0.195000000    -5.698000000     3.098000000
H     0.318000000    -6.452000000     3.389000000
H     0.447000000    -5.113000000     2.695000000
O    -1.853000000     0.526000000    -6.159000000
H    -1.647000000     1.452000000    -6.034000000
H    -1.557000000     0.103000000    -5.353000000
O    -2.646000000    -0.839000000     5.098000000
H    -3.252000000    -0.870000000     4.358000000
H    -2.823000000     0.004000000     5.517000000
O     4.008000000    -0.074000000    -7.282000000
H     4.313000000    -0.944000000    -7.539000000
H     3.144000000    -0.227000000    -6.900000000
O     2.483000000     3.001000000    -3.177000000
H     2.075000000     2.232000000    -3.575000000
H     3.164000000     2.642000000    -2.607000000
O     3.225000000    -1.327000000    -3.908000000
H     2.570000000    -0.698000000    -4.210000000
H     2.764000000    -1.862000000    -3.262000000
O    -0.264000000    -2.397000000    -5.404000000
H    -0.661000000    -3.265000000    -5.335000000
H    -0.570000000    -1.931000000    -4.625000000
