158
-3026.33572
C     0.333000000     0.949000000    -0.994000000
H     0.785000000     1.697000000    -1.639000000
C     1.049000000     0.768000000     0.228000000
H     1.899000000     1.364000000     0.550000000
C     0.548000000    -0.181000000     1.064000000
H     1.015000000    -0.257000000     2.030000000
C    -0.500000000    -1.052000000     0.706000000
H    -0.876000000    -1.619000000     1.554000000
C    -1.086000000    -0.918000000    -0.604000000
H    -1.972000000    -1.470000000    -0.908000000
C    -0.593000000     0.067000000    -1.467000000
C    -1.278000000     0.394000000    -2.837000000
O    -1.022000000     1.463000000    -3.451000000
O    -2.151000000    -0.299000000    -3.277000000
O     2.503000000    -0.844000000     4.934000000
H     2.784000000    -0.303000000     4.197000000
H     3.162000000    -0.688000000     5.611000000
O    -3.997000000     1.483000000    -2.212000000
H    -3.256000000     0.896000000    -2.063000000
H    -3.811000000     2.247000000    -1.666000000
O     2.689000000    -5.743000000     2.700000000
H     3.588000000    -5.543000000     2.441000000
H     2.179000000    -4.992000000     2.397000000
O     1.497000000     4.816000000    -0.740000000
H     1.515000000     5.529000000    -1.379000000
H     2.266000000     4.967000000    -0.191000000
O    -6.292000000    -3.159000000    -1.930000000
H    -6.404000000    -4.074000000    -2.188000000
H    -5.344000000    -3.032000000    -1.903000000
O    -3.932000000     0.713000000     1.548000000
H    -4.022000000     0.591000000     2.493000000
H    -4.212000000    -0.122000000     1.171000000
O     0.244000000    -2.558000000     4.061000000
H     0.421000000    -2.638000000     3.123000000
H     0.889000000    -1.924000000     4.373000000
O    -2.464000000     3.221000000    -0.854000000
H    -2.624000000     3.085000000     0.080000000
H    -1.891000000     3.987000000    -0.890000000
O     6.216000000     0.488000000     3.969000000
H     6.673000000    -0.200000000     4.452000000
H     5.481000000     0.039000000     3.551000000
O     2.095000000    -3.855000000     5.679000000
H     1.414000000    -3.380000000     5.202000000
H     2.158000000    -3.402000000     6.520000000
O    -3.386000000    -1.684000000    -7.768000000
H    -3.708000000    -1.529000000    -6.880000000
H    -2.551000000    -1.218000000    -7.805000000
O     2.926000000    -2.008000000    -3.965000000
H     2.878000000    -1.190000000    -3.469000000
H     2.713000000    -1.755000000    -4.863000000
O    -6.707000000    -0.848000000    -3.442000000
H    -6.825000000    -1.243000000    -4.305000000
H    -6.910000000    -1.552000000    -2.826000000
O    -5.753000000     1.711000000    -4.102000000
H    -4.965000000     1.964000000    -3.620000000
H    -6.030000000     0.891000000    -3.695000000
O     3.899000000     5.445000000     0.340000000
H     4.713000000     5.579000000    -0.145000000
H     3.953000000     6.055000000     1.075000000
O     0.326000000    -1.023000000    -7.064000000
H     1.154000000    -1.500000000    -7.012000000
H     0.430000000    -0.294000000    -6.452000000
O     0.015000000     0.078000000     8.171000000
H    -0.663000000    -0.578000000     8.333000000
H    -0.258000000     0.510000000     7.362000000
O    -0.980000000     5.419000000    -0.147000000
H    -0.959000000     5.368000000     0.809000000
H    -0.238000000     4.886000000    -0.432000000
O    -2.465000000    -4.331000000    -2.551000000
H    -3.088000000    -3.626000000    -2.726000000
H    -2.780000000    -4.733000000    -1.741000000
O    -1.668000000    -2.697000000     6.300000000
H    -1.694000000    -1.827000000     6.699000000
H    -0.896000000    -2.678000000     5.734000000
O    -3.652000000    -0.310000000    -5.444000000
H    -2.977000000    -0.327000000    -4.766000000
H    -4.006000000     0.578000000    -5.409000000
O     5.918000000    -3.032000000     1.062000000
H     5.498000000    -3.329000000     1.870000000
H     6.659000000    -2.503000000     1.358000000
O     4.622000000    -3.737000000     3.647000000
H     3.910000000    -3.168000000     3.938000000
H     4.241000000    -4.615000000     3.643000000
O    -0.527000000    -4.872000000    -4.417000000
H    -1.154000000    -4.726000000    -3.708000000
H    -0.379000000    -4.003000000    -4.789000000
O     3.617000000     0.581000000     2.711000000
H     3.718000000    -0.007000000     1.963000000
H     4.033000000     1.397000000     2.433000000
O    -3.974000000    -3.012000000     2.749000000
H    -4.512000000    -3.495000000     2.122000000
H    -3.076000000    -3.143000000     2.444000000
O    -2.012000000    -4.967000000     1.734000000
H    -2.020000000    -4.993000000     2.691000000
H    -1.304000000    -5.560000000     1.484000000
O    -5.471000000    -1.641000000     0.426000000
H    -5.619000000    -2.354000000     1.047000000
H    -5.914000000    -1.924000000    -0.373000000
O     0.505000000     0.901000000    -5.301000000
H    -0.084000000     1.284000000    -4.652000000
H     1.350000000     0.845000000    -4.854000000
O     5.996000000     2.175000000     1.697000000
H     6.310000000     1.779000000     2.510000000
H     6.788000000     2.325000000     1.182000000
O    -1.562000000     1.582000000    -7.042000000
H    -1.966000000     2.094000000    -6.342000000
H    -0.675000000     1.405000000    -6.729000000
O     0.172000000     0.768000000     5.350000000
H    -0.630000000     0.310000000     5.098000000
H     0.878000000     0.178000000     5.086000000
O     4.564000000     1.529000000    -0.757000000
H     4.856000000     1.914000000     0.069000000
H     4.632000000     0.584000000    -0.618000000
O     3.536000000     3.532000000    -2.195000000
H     3.193000000     4.092000000    -1.499000000
H     3.757000000     2.711000000    -1.756000000
O     0.011000000     6.582000000    -4.589000000
H     0.798000000     6.955000000    -4.986000000
H     0.117000000     5.636000000    -4.689000000
O     4.342000000    -1.035000000     0.174000000
H     4.840000000    -1.787000000     0.494000000
H     3.497000000    -1.401000000    -0.088000000
O     3.248000000     0.986000000    -3.992000000
H     3.207000000     1.709000000    -3.366000000
H     3.971000000     1.215000000    -4.576000000
O    -3.459000000    -5.806000000    -0.536000000
H    -3.330000000    -6.744000000    -0.393000000
H    -3.149000000    -5.396000000     0.272000000
O     2.051000000    -2.194000000    -0.787000000
H     2.137000000    -2.714000000    -1.586000000
H     1.209000000    -1.749000000    -0.881000000
O     0.424000000     3.059000000     7.019000000
H     0.406000000     2.224000000     6.551000000
H    -0.497000000     3.309000000     7.099000000
O    -1.519000000     2.148000000     2.086000000
H    -1.002000000     1.596000000     1.499000000
H    -2.427000000     1.970000000     1.843000000
O     1.376000000    -3.764000000     1.363000000
H     1.731000000    -3.290000000     0.611000000
H     0.908000000    -4.505000000     0.980000000
O    -2.759000000     3.322000000    -5.072000000
H    -2.276000000     2.846000000    -4.396000000
H    -2.650000000     4.244000000    -4.840000000
O    -0.288000000     3.208000000     4.132000000
H    -0.746000000     2.993000000     3.320000000
H    -0.084000000     2.358000000     4.523000000
O    -2.216000000    -0.352000000     4.993000000
H    -2.575000000    -1.239000000     4.982000000
H    -2.970000000     0.214000000     4.827000000
O     0.291000000     3.963000000    -3.685000000
H    -0.296000000     3.208000000    -3.653000000
H     0.578000000     4.082000000    -2.779000000
O    -0.197000000    -2.161000000    -4.289000000
H    -0.933000000    -1.741000000    -3.845000000
H    -0.177000000    -1.756000000    -5.156000000
O    -4.069000000    -2.122000000    -2.998000000
H    -4.768000000    -1.713000000    -3.508000000
H    -3.337000000    -1.508000000    -3.060000000
