158
-3049.78667
C     0.447000000    -0.137000000    -1.409000000
H     0.861000000    -0.252000000    -2.408000000
C     1.133000000     0.574000000    -0.388000000
H     2.143000000     0.891000000    -0.636000000
C     0.567000000     0.719000000     0.901000000
H     1.084000000     1.306000000     1.644000000
C    -0.639000000     0.061000000     1.164000000
H    -1.218000000     0.254000000     2.063000000
C    -1.267000000    -0.668000000     0.161000000
H    -2.242000000    -1.089000000     0.391000000
C    -0.722000000    -0.862000000    -1.143000000
C    -1.353000000    -1.758000000    -2.152000000
O    -0.785000000    -2.010000000    -3.211000000
O    -2.392000000    -2.273000000    -1.875000000
O    -2.319000000    -3.025000000    -6.814000000
H    -2.407000000    -2.557000000    -5.983000000
H    -1.612000000    -2.569000000    -7.271000000
O    -0.020000000    -1.621000000     4.916000000
H     0.232000000    -1.873000000     5.804000000
H    -0.935000000    -1.349000000     4.995000000
O     5.190000000     1.191000000     6.605000000
H     5.512000000     2.092000000     6.626000000
H     4.860000000     1.075000000     5.714000000
O     0.674000000    -4.379000000    -5.214000000
H     0.013000000    -4.384000000    -4.521000000
H     0.238000000    -4.786000000    -5.963000000
O     1.613000000     4.584000000    -3.934000000
H     0.980000000     3.866000000    -3.945000000
H     1.759000000     4.760000000    -3.005000000
O    -3.493000000    -3.563000000     0.031000000
H    -3.908000000    -4.374000000    -0.262000000
H    -2.984000000    -3.268000000    -0.724000000
O    -2.924000000     3.582000000     5.155000000
H    -3.380000000     4.306000000     4.725000000
H    -2.256000000     3.312000000     4.525000000
O     1.322000000     6.791000000     3.086000000
H     1.803000000     7.464000000     3.566000000
H     1.991000000     6.160000000     2.822000000
O    -2.920000000     2.330000000     0.869000000
H    -3.026000000     2.518000000    -0.063000000
H    -2.187000000     2.882000000     1.142000000
O    -3.158000000     2.987000000    -1.839000000
H    -3.324000000     2.293000000    -2.476000000
H    -3.103000000     3.786000000    -2.363000000
O     3.765000000     0.139000000    -4.785000000
H     4.082000000    -0.759000000    -4.689000000
H     2.811000000     0.057000000    -4.784000000
O     2.491000000     3.701000000    -0.726000000
H     3.112000000     3.259000000    -1.305000000
H     1.643000000     3.592000000    -1.156000000
O     3.611000000    -3.753000000     3.209000000
H     2.999000000    -3.348000000     2.595000000
H     4.247000000    -3.064000000     3.403000000
O    -3.661000000     1.045000000    -3.684000000
H    -3.858000000     0.332000000    -3.076000000
H    -3.372000000     0.604000000    -4.483000000
O     1.781000000     3.576000000     4.640000000
H     2.106000000     3.401000000     3.757000000
H     1.756000000     2.717000000     5.061000000
O    -5.460000000    -1.539000000    -5.756000000
H    -4.841000000    -0.899000000    -6.107000000
H    -4.971000000    -1.995000000    -5.072000000
O     4.252000000     0.510000000     3.796000000
H     4.376000000     1.047000000     3.014000000
H     3.459000000     0.005000000     3.616000000
O     0.768000000    -4.270000000    -0.871000000
H     0.160000000    -4.376000000    -1.603000000
H     1.584000000    -3.978000000    -1.279000000
O     2.072000000    -1.368000000     3.050000000
H     1.384000000    -1.653000000     3.652000000
H     1.599000000    -1.026000000     2.291000000
O    -1.174000000     2.629000000     3.484000000
H    -0.331000000     2.360000000     3.847000000
H    -0.948000000     3.133000000     2.702000000
O    -4.501000000     1.309000000     3.359000000
H    -5.017000000     2.014000000     3.750000000
H    -4.034000000     1.726000000     2.635000000
O     4.275000000     1.535000000     1.282000000
H     3.369000000     1.797000000     1.116000000
H     4.490000000     0.947000000     0.558000000
O     0.018000000     2.329000000    -4.949000000
H    -0.827000000     2.698000000    -5.208000000
H    -0.138000000     1.386000000    -4.899000000
O    -0.068000000     3.341000000    -1.676000000
H    -0.521000000     2.503000000    -1.765000000
H    -0.620000000     3.964000000    -2.148000000
O     1.196000000     6.153000000    -0.218000000
H     1.991000000     5.628000000    -0.319000000
H     1.470000000     6.901000000     0.314000000
O    -1.434000000    -4.902000000    -3.055000000
H    -2.259000000    -5.028000000    -3.524000000
H    -1.412000000    -3.966000000    -2.856000000
O     0.041000000    -4.630000000     1.640000000
H    -0.450000000    -5.440000000     1.501000000
H     0.497000000    -4.481000000     0.812000000
O     5.076000000    -1.020000000    -0.647000000
H     5.364000000    -0.950000000     0.263000000
H     5.705000000    -0.491000000    -1.138000000
O    -2.753000000    -3.474000000     2.800000000
H    -2.982000000    -3.581000000     1.877000000
H    -1.943000000    -2.965000000     2.789000000
O     0.479000000     1.198000000     5.693000000
H     1.189000000     1.005000000     6.305000000
H     0.179000000     0.339000000     5.396000000
O     1.307000000     1.356000000    -7.042000000
H     1.963000000     1.983000000    -7.346000000
H     1.115000000     1.626000000    -6.144000000
O    -4.732000000    -1.123000000    -1.166000000
H    -5.034000000    -1.460000000    -0.323000000
H    -3.868000000    -1.518000000    -1.286000000
O    -5.660000000    -2.418000000     1.245000000
H    -5.675000000    -2.729000000     2.150000000
H    -4.993000000    -2.955000000     0.818000000
O    -6.877000000     0.181000000    -2.748000000
H    -7.060000000    -0.119000000    -3.639000000
H    -6.326000000    -0.506000000    -2.373000000
O    -4.079000000    -2.631000000    -3.940000000
H    -3.611000000    -2.409000000    -3.135000000
H    -3.982000000    -3.580000000    -4.020000000
O     2.812000000     3.979000000     2.024000000
H     3.342000000     4.614000000     2.505000000
H     3.122000000     4.044000000     1.120000000
O     6.362000000     2.904000000     2.169000000
H     7.238000000     2.677000000     1.856000000
H     5.784000000     2.270000000     1.743000000
O    -5.728000000     1.860000000    -0.152000000
H    -4.995000000     1.581000000     0.397000000
H    -5.746000000     1.225000000    -0.868000000
O    -0.627000000     3.058000000     7.312000000
H    -1.519000000     2.712000000     7.277000000
H    -0.121000000     2.474000000     6.746000000
O    -2.284000000    -0.325000000     4.780000000
H    -2.514000000    -0.176000000     3.863000000
H    -2.935000000     0.172000000     5.275000000
O     3.998000000     2.208000000    -2.914000000
H     4.217000000     3.061000000    -3.291000000
H     4.067000000     1.598000000    -3.648000000
O    -0.969000000    -0.214000000    -5.095000000
H    -0.814000000    -0.851000000    -4.398000000
H    -0.679000000    -0.658000000    -5.893000000
O    -0.290000000     4.022000000     1.308000000
H    -0.132000000     3.692000000     0.424000000
H     0.509000000     4.498000000     1.533000000
O     6.317000000     1.289000000    -1.734000000
H     6.569000000     2.194000000    -1.551000000
H     5.416000000     1.351000000    -2.053000000
O     1.953000000    -2.026000000    -3.724000000
H     1.094000000    -1.891000000    -3.324000000
H     1.760000000    -2.378000000    -4.593000000
O     3.185000000    -3.057000000    -1.476000000
H     3.528000000    -2.265000000    -1.062000000
H     2.886000000    -2.767000000    -2.337000000
O    -4.123000000    -5.376000000    -4.344000000
H    -4.256000000    -5.998000000    -3.629000000
H    -3.802000000    -5.911000000    -5.070000000
O     0.102000000    -1.345000000    -7.291000000
H     0.421000000    -1.637000000    -8.144000000
H     0.702000000    -0.642000000    -7.039000000
