158
-3022.38701
C     0.379000000    -0.778000000    -1.172000000
H     0.988000000    -1.315000000    -1.894000000
C     1.100000000     0.328000000    -0.653000000
H     1.985000000     0.743000000    -1.129000000
C     0.530000000     1.000000000     0.458000000
H     0.955000000     1.883000000     0.972000000
C    -0.669000000     0.599000000     0.940000000
H    -0.960000000     1.156000000     1.827000000
C    -1.322000000    -0.500000000     0.468000000
H    -2.240000000    -0.819000000     0.956000000
C    -0.793000000    -1.278000000    -0.592000000
C    -1.490000000    -2.456000000    -1.135000000
O    -0.932000000    -3.258000000    -1.859000000
O    -2.551000000    -2.791000000    -0.746000000
O    -4.644000000    -5.075000000    -4.761000000
H    -4.334000000    -4.931000000    -3.867000000
H    -5.162000000    -4.295000000    -4.963000000
O    -5.429000000     0.137000000     4.387000000
H    -5.957000000    -0.500000000     4.867000000
H    -5.199000000    -0.309000000     3.572000000
O     0.016000000    -5.903000000    -3.317000000
H     0.149000000    -5.114000000    -3.842000000
H    -0.254000000    -5.577000000    -2.459000000
O    -4.270000000    -5.610000000     2.691000000
H    -5.173000000    -5.353000000     2.501000000
H    -3.757000000    -4.819000000     2.531000000
O    -2.860000000    -2.293000000    -3.923000000
H    -2.511000000    -1.405000000    -3.989000000
H    -2.456000000    -2.651000000    -3.132000000
O    -2.400000000    -3.470000000     1.965000000
H    -1.785000000    -4.085000000     2.364000000
H    -2.034000000    -3.293000000     1.099000000
O    -0.897000000     4.372000000     3.627000000
H    -0.239000000     3.682000000     3.713000000
H    -1.717000000     3.955000000     3.890000000
O    -3.078000000     3.397000000     1.048000000
H    -2.291000000     3.923000000     1.192000000
H    -3.271000000     3.016000000     1.904000000
O    -3.042000000     6.258000000     2.870000000
H    -2.526000000     7.064000000     2.879000000
H    -2.413000000     5.573000000     2.643000000
O    -1.350000000     2.043000000    -1.712000000
H    -2.087000000     1.433000000    -1.687000000
H    -0.853000000     1.852000000    -0.917000000
O     0.546000000     6.261000000    -3.040000000
H     1.021000000     5.996000000    -3.828000000
H    -0.026000000     5.518000000    -2.844000000
O    -1.603000000     4.286000000    -3.164000000
H    -2.108000000     4.146000000    -3.966000000
H    -1.666000000     3.455000000    -2.694000000
O     4.498000000    -4.650000000    -2.048000000
H     3.583000000    -4.368000000    -2.025000000
H     4.454000000    -5.592000000    -2.214000000
O     3.008000000     2.534000000    -2.734000000
H     3.938000000     2.761000000    -2.757000000
H     2.666000000     3.003000000    -1.972000000
O    -1.127000000     5.272000000     0.553000000
H    -0.906000000     6.020000000     1.109000000
H    -1.659000000     5.646000000    -0.150000000
O    -6.461000000    -3.275000000    -2.473000000
H    -6.227000000    -2.347000000    -2.488000000
H    -5.739000000    -3.696000000    -2.006000000
O    -0.240000000     6.634000000     4.950000000
H    -0.380000000     6.467000000     5.882000000
H    -0.261000000     5.767000000     4.546000000
O     2.931000000    -2.621000000     1.302000000
H     2.908000000    -2.581000000     0.346000000
H     2.296000000    -1.964000000     1.585000000
O     6.575000000     1.977000000    -0.544000000
H     7.389000000     2.445000000    -0.732000000
H     5.945000000     2.331000000    -1.171000000
O    -0.949000000    -0.636000000     4.036000000
H    -1.306000000    -1.472000000     4.335000000
H    -0.081000000    -0.855000000     3.696000000
O    -1.962000000     0.059000000    -4.805000000
H    -2.064000000     0.361000000    -5.707000000
H    -1.219000000     0.560000000    -4.468000000
O     0.586000000     1.894000000     4.066000000
H     1.440000000     1.663000000     3.699000000
H     0.086000000     1.078000000     4.041000000
O    -3.236000000     3.013000000     3.661000000
H    -3.260000000     2.200000000     4.166000000
H    -3.812000000     3.610000000     4.139000000
O     4.061000000     0.409000000     0.870000000
H     4.297000000    -0.373000000     1.368000000
H     3.954000000     1.092000000     1.532000000
O     4.868000000     4.840000000     1.317000000
H     5.551000000     5.270000000     0.803000000
H     4.644000000     4.058000000     0.811000000
O    -5.462000000    -0.443000000    -2.302000000
H    -4.902000000     0.306000000    -2.097000000
H    -6.141000000    -0.084000000    -2.873000000
O     4.493000000    -1.005000000    -1.667000000
H     4.793000000    -1.704000000    -1.087000000
H     4.226000000    -0.301000000    -1.076000000
O     0.289000000     1.615000000    -3.905000000
H     1.182000000     1.770000000    -3.597000000
H    -0.264000000     1.827000000    -3.154000000
O    -7.675000000    -2.563000000     0.759000000
H    -6.795000000    -2.672000000     0.398000000
H    -7.713000000    -1.644000000     1.024000000
O     0.262000000     7.577000000     1.343000000
H     0.650000000     8.452000000     1.353000000
H     0.965000000     7.000000000     1.640000000
O    -1.094000000    -5.654000000    -0.524000000
H    -1.892000000    -6.169000000    -0.409000000
H    -1.384000000    -4.862000000    -0.977000000
O    -4.513000000    -1.821000000     2.484000000
H    -3.696000000    -2.317000000     2.523000000
H    -4.884000000    -2.038000000     1.628000000
O     1.314000000     4.570000000     1.709000000
H     0.358000000     4.589000000     1.672000000
H     1.583000000     4.311000000     0.827000000
O     1.965000000     4.322000000    -0.919000000
H     1.164000000     4.740000000    -1.234000000
H     2.671000000     4.791000000    -1.363000000
O    -4.146000000    -4.788000000    -1.930000000
H    -3.829000000    -5.546000000    -1.438000000
H    -3.562000000    -4.075000000    -1.674000000
O     2.980000000     0.459000000     4.036000000
H     3.327000000     1.343000000     3.913000000
H     3.587000000     0.048000000     4.652000000
O     6.905000000     0.797000000     2.086000000
H     6.632000000     1.198000000     1.261000000
H     6.526000000    -0.081000000     2.064000000
O    -2.927000000     0.665000000     5.245000000
H    -2.275000000     0.245000000     4.684000000
H    -3.764000000     0.488000000     4.814000000
O     0.816000000    -0.906000000    -5.123000000
H     1.744000000    -0.946000000    -4.893000000
H     0.552000000    -0.013000000    -4.901000000
O     1.614000000     4.184000000     5.934000000
H     2.562000000     4.094000000     6.028000000
H     1.378000000     3.546000000     5.261000000
O    -0.334000000    -5.261000000     2.304000000
H    -0.371000000    -5.569000000     1.398000000
H     0.336000000    -5.807000000     2.715000000
O     0.451000000    -3.467000000    -4.347000000
H     0.087000000    -3.320000000    -3.474000000
H     0.569000000    -2.589000000    -4.708000000
O     3.410000000     2.997000000     2.996000000
H     2.601000000     3.238000000     2.545000000
H     4.041000000     3.667000000     2.732000000
O     3.064000000    -0.031000000    -3.826000000
H     3.800000000    -0.375000000    -3.319000000
H     3.040000000     0.901000000    -3.611000000
O     1.744000000    -4.133000000    -1.165000000
H     0.903000000    -3.844000000    -1.520000000
H     1.564000000    -4.316000000    -0.242000000
O     3.726000000     7.034000000     0.533000000
H     3.904000000     6.165000000     0.894000000
H     3.258000000     6.862000000    -0.285000000
O    -5.038000000    -2.271000000    -0.016000000
H    -4.103000000    -2.377000000    -0.190000000
H    -5.280000000    -1.473000000    -0.486000000
O    -4.246000000     2.039000000    -1.252000000
H    -3.384000000     2.441000000    -1.359000000
H    -4.423000000     2.097000000    -0.313000000
