158
-3023.63540
C     0.239000000    -0.908000000    -1.116000000
H     0.500000000    -1.598000000    -1.915000000
C     1.025000000     0.196000000    -0.766000000
H     1.930000000     0.409000000    -1.329000000
C     0.726000000     0.966000000     0.317000000
H     1.387000000     1.737000000     0.541000000
C    -0.470000000     0.754000000     1.065000000
H    -0.816000000     1.341000000     1.912000000
C    -1.277000000    -0.288000000     0.624000000
H    -2.228000000    -0.514000000     1.100000000
C    -0.887000000    -1.169000000    -0.395000000
C    -1.725000000    -2.450000000    -0.681000000
O    -1.515000000    -3.145000000    -1.693000000
O    -2.575000000    -2.844000000     0.110000000
O    -4.894000000    -6.513000000    -3.218000000
H    -4.448000000    -6.362000000    -2.385000000
H    -4.703000000    -5.733000000    -3.738000000
O    -5.975000000     0.162000000     1.466000000
H    -5.917000000    -0.785000000     1.340000000
H    -6.778000000     0.287000000     1.971000000
O     4.516000000     3.585000000     5.307000000
H     5.418000000     3.853000000     5.129000000
H     4.329000000     2.920000000     4.644000000
O    -4.347000000    -4.444000000    -5.261000000
H    -5.264000000    -4.171000000    -5.295000000
H    -3.903000000    -3.735000000    -4.796000000
O    -4.203000000     3.955000000     0.793000000
H    -3.371000000     3.654000000     0.430000000
H    -4.068000000     3.945000000     1.741000000
O    -3.494000000    -2.443000000    -3.557000000
H    -2.963000000    -1.843000000    -4.081000000
H    -2.902000000    -2.751000000    -2.872000000
O    -1.537000000    -4.504000000     2.075000000
H    -0.623000000    -4.260000000     1.928000000
H    -2.008000000    -4.125000000     1.333000000
O     0.124000000     3.356000000     4.441000000
H    -0.496000000     2.644000000     4.593000000
H     0.895000000     3.117000000     4.955000000
O    -1.730000000     4.269000000    -0.633000000
H    -0.927000000     4.719000000    -0.369000000
H    -2.171000000     4.889000000    -1.215000000
O    -0.804000000     5.826000000     4.421000000
H    -0.491000000     4.933000000     4.564000000
H    -0.408000000     6.089000000     3.591000000
O     2.289000000    -5.218000000    -3.148000000
H     1.708000000    -4.975000000    -2.427000000
H     2.371000000    -4.419000000    -3.669000000
O    -0.975000000     2.160000000    -2.428000000
H    -1.011000000     2.825000000    -1.741000000
H    -0.400000000     1.481000000    -2.075000000
O     4.833000000     4.759000000    -1.961000000
H     5.417000000     5.516000000    -1.913000000
H     4.807000000     4.535000000    -2.891000000
O     5.270000000     2.102000000    -0.875000000
H     6.035000000     1.743000000    -1.324000000
H     5.076000000     2.913000000    -1.343000000
O    -0.186000000     7.052000000    -0.124000000
H     0.066000000     7.975000000    -0.075000000
H     0.141000000     6.760000000    -0.974000000
O    -6.128000000    -5.006000000    -0.699000000
H    -6.320000000    -4.170000000    -1.123000000
H    -5.199000000    -5.155000000    -0.873000000
O     2.386000000    -1.285000000     5.231000000
H     2.679000000    -1.248000000     4.321000000
H     2.994000000    -1.891000000     5.655000000
O     2.395000000    -1.135000000     2.083000000
H     3.120000000    -0.513000000     2.134000000
H     1.963000000    -0.932000000     1.253000000
O     0.594000000    -4.210000000    -6.212000000
H     0.345000000    -3.738000000    -5.417000000
H    -0.223000000    -4.594000000    -6.529000000
O     0.361000000    -0.355000000    -4.318000000
H    -0.539000000    -0.028000000    -4.321000000
H     0.840000000     0.256000000    -4.878000000
O     1.389000000     1.271000000     5.601000000
H     1.728000000     0.409000000     5.843000000
H     1.061000000     1.157000000     4.709000000
O    -2.071000000     1.390000000     4.742000000
H    -2.008000000     0.437000000     4.806000000
H    -2.622000000     1.542000000     3.974000000
O     4.923000000    -0.118000000     0.707000000
H     5.251000000     0.037000000     1.593000000
H     4.922000000     0.747000000     0.297000000
O    -6.002000000    -2.547000000    -2.047000000
H    -6.749000000    -1.996000000    -2.282000000
H    -5.256000000    -2.139000000    -2.486000000
O    -4.542000000     1.574000000    -3.306000000
H    -5.483000000     1.579000000    -3.481000000
H    -4.476000000     1.537000000    -2.352000000
O     2.766000000     2.689000000    -2.769000000
H     2.088000000     2.014000000    -2.744000000
H     3.122000000     2.703000000    -1.881000000
O    -6.653000000    -4.776000000     2.078000000
H    -6.459000000    -3.864000000     1.862000000
H    -6.624000000    -5.233000000     1.238000000
O    -0.003000000    -5.301000000    -1.155000000
H    -0.614000000    -6.004000000    -0.935000000
H    -0.550000000    -4.622000000    -1.551000000
O    -4.037000000     1.786000000     2.975000000
H    -4.827000000     2.033000000     3.455000000
H    -4.358000000     1.278000000     2.230000000
O    -3.755000000    -2.991000000     3.092000000
H    -3.188000000    -3.632000000     2.664000000
H    -4.202000000    -2.548000000     2.371000000
O     1.792000000    -5.378000000     0.816000000
H     1.090000000    -5.305000000     0.170000000
H     2.141000000    -6.261000000     0.692000000
O     2.551000000     3.781000000     1.998000000
H     1.646000000     3.632000000     2.272000000
H     2.504000000     4.543000000     1.421000000
O     2.345000000     1.446000000    -5.200000000
H     2.881000000     1.918000000    -4.563000000
H     2.960000000     0.862000000    -5.644000000
O     2.755000000     5.654000000    -0.467000000
H     2.052000000     5.500000000    -1.098000000
H     3.528000000     5.258000000    -0.869000000
O    -4.070000000    -7.481000000     2.079000000
H    -3.755000000    -8.380000000     2.173000000
H    -3.283000000    -6.969000000     1.893000000
O    -3.406000000    -5.727000000    -0.960000000
H    -2.843000000    -6.319000000    -0.461000000
H    -2.932000000    -4.896000000    -0.969000000
O     2.877000000     7.618000000     1.418000000
H     3.309000000     8.284000000     0.883000000
H     2.913000000     6.823000000     0.887000000
O     4.494000000     0.026000000     3.586000000
H     4.786000000     0.847000000     3.190000000
H     4.716000000     0.115000000     4.513000000
O    -2.346000000     0.078000000    -4.847000000
H    -2.346000000     0.416000000    -5.743000000
H    -3.100000000     0.497000000    -4.433000000
O    -2.860000000    -1.395000000     5.282000000
H    -1.967000000    -1.739000000     5.289000000
H    -3.228000000    -1.700000000     4.453000000
O     2.848000000    -2.503000000    -3.925000000
H     3.593000000    -2.027000000    -3.558000000
H     2.130000000    -1.869000000    -3.914000000
O     0.944000000    -3.560000000     2.461000000
H     1.357000000    -4.071000000     1.764000000
H     1.362000000    -2.701000000     2.408000000
O    -0.176000000    -2.895000000    -4.181000000
H    -0.544000000    -2.890000000    -3.297000000
H     0.164000000    -2.008000000    -4.303000000
O     4.964000000     2.550000000     2.559000000
H     4.214000000     3.136000000     2.462000000
H     5.389000000     2.560000000     1.701000000
O     4.855000000    -1.261000000    -2.422000000
H     5.421000000    -1.539000000    -1.702000000
H     5.104000000    -0.351000000    -2.585000000
O     4.150000000    -3.554000000     1.800000000
H     3.604000000    -4.176000000     1.320000000
H     4.081000000    -2.739000000     1.301000000
O    -5.338000000    -2.345000000     0.578000000
H    -4.453000000    -2.612000000     0.331000000
H    -5.805000000    -2.266000000    -0.254000000
O    -4.382000000     0.709000000    -0.763000000
H    -3.508000000     0.328000000    -0.680000000
H    -4.873000000     0.344000000    -0.026000000
