158
-3035.59551
C     0.770000000     0.828000000    -0.920000000
H     1.441000000     1.367000000    -1.584000000
C     1.308000000     0.245000000     0.218000000
H     2.353000000     0.431000000     0.450000000
C     0.502000000    -0.600000000     0.973000000
H     0.932000000    -1.010000000     1.914000000
C    -0.808000000    -0.767000000     0.635000000
H    -1.454000000    -1.387000000     1.252000000
C    -1.371000000    -0.038000000    -0.439000000
H    -2.414000000    -0.131000000    -0.729000000
C    -0.560000000     0.688000000    -1.254000000
C    -1.131000000     1.268000000    -2.555000000
O    -0.590000000     2.144000000    -3.156000000
O    -2.290000000     1.080000000    -2.897000000
O     4.357000000     2.547000000     3.528000000
H     3.776000000     3.304000000     3.457000000
H     5.152000000     2.892000000     3.933000000
O     1.015000000     0.045000000     4.424000000
H     0.922000000     0.912000000     4.028000000
H     1.961000000    -0.100000000     4.464000000
O    -3.121000000     3.036000000    -0.486000000
H    -3.385000000     3.087000000    -1.405000000
H    -2.429000000     3.692000000    -0.399000000
O    -4.835000000    -0.942000000     0.085000000
H    -4.128000000    -1.501000000    -0.240000000
H    -5.293000000    -1.485000000     0.727000000
O     0.090000000    -3.766000000    -0.117000000
H    -0.589000000    -4.204000000     0.397000000
H     0.877000000    -3.826000000     0.425000000
O    -5.093000000     2.026000000     1.008000000
H    -4.720000000     1.223000000     1.371000000
H    -4.435000000     2.335000000     0.385000000
O    -3.867000000     0.599000000     3.238000000
H    -4.408000000    -0.191000000     3.255000000
H    -3.074000000     0.355000000     3.716000000
O     4.190000000    -3.276000000    -1.160000000
H     4.730000000    -2.660000000    -0.666000000
H     3.458000000    -2.749000000    -1.481000000
O     2.323000000     4.325000000    -1.628000000
H     2.925000000     3.706000000    -2.042000000
H     2.164000000     4.989000000    -2.298000000
O     4.073000000     2.682000000    -2.773000000
H     4.302000000     2.619000000    -3.701000000
H     3.645000000     1.849000000    -2.575000000
O     1.036000000     0.351000000    -4.490000000
H     1.666000000     0.626000000    -3.823000000
H     0.218000000     0.780000000    -4.238000000
O    -1.526000000     6.605000000    -3.079000000
H    -1.284000000     6.373000000    -2.182000000
H    -1.967000000     5.825000000    -3.417000000
O    -2.924000000     0.967000000    -5.342000000
H    -3.867000000     0.844000000    -5.233000000
H    -2.591000000     1.071000000    -4.451000000
O    -1.367000000     1.644000000    -7.321000000
H    -2.073000000     1.663000000    -7.968000000
H    -1.808000000     1.462000000    -6.491000000
O     2.247000000    -3.107000000     2.294000000
H     2.702000000    -2.447000000     1.772000000
H     2.499000000    -3.941000000     1.897000000
O    -1.685000000    -3.927000000     2.336000000
H    -2.096000000    -4.545000000     2.941000000
H    -1.130000000    -3.381000000     2.893000000
O    -5.873000000    -0.668000000    -4.646000000
H    -6.291000000     0.002000000    -5.187000000
H    -5.714000000    -0.235000000    -3.807000000
O     2.746000000     3.907000000    -6.824000000
H     2.148000000     4.077000000    -6.096000000
H     3.482000000     3.442000000    -6.426000000
O     1.821000000     5.906000000    -3.842000000
H     2.743000000     6.109000000    -4.003000000
H     1.376000000     6.751000000    -3.906000000
O    -4.680000000     0.571000000    -2.261000000
H    -3.784000000     0.839000000    -2.464000000
H    -4.609000000     0.116000000    -1.421000000
O     5.260000000    -1.424000000     0.439000000
H     6.000000000    -1.733000000     0.963000000
H     5.162000000    -0.504000000     0.683000000
O    -3.640000000    -1.739000000    -6.274000000
H    -3.359000000    -0.828000000    -6.350000000
H    -4.423000000    -1.703000000    -5.724000000
O    -0.763000000     4.143000000    -7.562000000
H    -0.872000000     3.192000000    -7.547000000
H    -0.156000000     4.326000000    -6.845000000
O     1.853000000    -2.655000000    -1.935000000
H     1.209000000    -2.875000000    -1.262000000
H     1.611000000    -3.199000000    -2.685000000
O     3.588000000    -3.906000000     5.342000000
H     3.135000000    -3.260000000     5.883000000
H     2.884000000    -4.395000000     4.914000000
O     0.452000000     3.863000000    -4.994000000
H     0.654000000     4.669000000    -4.520000000
H     0.070000000     3.286000000    -4.333000000
O    -1.656000000     2.355000000     1.793000000
H    -2.070000000     2.743000000     1.021000000
H    -1.351000000     1.498000000     1.496000000
O    -2.733000000    -2.063000000    -3.570000000
H    -2.832000000    -2.772000000    -2.935000000
H    -3.418000000    -1.436000000    -3.339000000
O     3.639000000     0.124000000     4.854000000
H     3.802000000     0.959000000     4.415000000
H     4.510000000    -0.251000000     4.986000000
O    -5.529000000    -3.023000000     2.063000000
H    -5.679000000    -2.607000000     2.913000000
H    -4.771000000    -3.590000000     2.204000000
O     5.797000000     1.365000000     1.538000000
H     6.309000000     2.168000000     1.436000000
H     4.978000000     1.653000000     1.940000000
O     2.907000000    -1.683000000     6.913000000
H     3.303000000    -1.142000000     7.596000000
H     2.961000000    -1.147000000     6.122000000
O     0.044000000     1.505000000     7.825000000
H    -0.412000000     2.081000000     8.439000000
H    -0.411000000     1.634000000     6.993000000
O     0.323000000    -2.506000000     3.944000000
H     0.530000000    -1.629000000     4.267000000
H     1.064000000    -2.737000000     3.384000000
O     5.519000000    -4.724000000     3.266000000
H     5.636000000    -3.908000000     2.779000000
H     4.769000000    -4.556000000     3.837000000
O     1.851000000    -5.789000000     1.096000000
H     1.159000000    -6.262000000     1.559000000
H     2.051000000    -6.340000000     0.339000000
O     0.635000000     2.656000000     3.467000000
H    -0.067000000     2.815000000     2.835000000
H     1.314000000     3.289000000     3.233000000
O    -3.213000000    -3.006000000    -0.784000000
H    -2.986000000    -3.832000000    -1.212000000
H    -2.515000000    -2.869000000    -0.143000000
O     1.369000000     1.188000000    -7.491000000
H     0.414000000     1.190000000    -7.543000000
H     1.558000000     1.176000000    -6.552000000
O    -0.259000000    -1.914000000    -5.071000000
H    -1.136000000    -1.877000000    -4.689000000
H     0.118000000    -1.053000000    -4.889000000
O     3.454000000    -0.054000000    -2.371000000
H     2.638000000    -0.332000000    -1.954000000
H     3.626000000    -0.724000000    -3.032000000
O    -3.282000000     4.218000000    -3.251000000
H    -2.607000000     3.592000000    -3.514000000
H    -4.108000000     3.767000000    -3.423000000
O    -1.779000000    -0.060000000     4.868000000
H    -1.823000000     0.825000000     5.229000000
H    -0.842000000    -0.249000000     4.810000000
O    -1.459000000     2.539000000     5.635000000
H    -2.045000000     3.294000000     5.677000000
H    -0.961000000     2.667000000     4.827000000
O    -0.415000000     4.381000000    -1.287000000
H    -0.297000000     3.614000000    -1.848000000
H     0.471000000     4.619000000    -1.016000000
O     0.670000000    -4.765000000     5.253000000
H    -0.164000000    -5.123000000     5.556000000
H     0.426000000    -4.019000000     4.705000000
O    -5.843000000     3.062000000    -3.038000000
H    -6.680000000     2.975000000    -3.493000000
H    -5.613000000     2.168000000    -2.785000000
O     3.128000000     3.103000000     0.846000000
H     2.584000000     3.626000000     0.257000000
H     3.877000000     2.842000000     0.311000000
