158
-3044.97785
C    -0.532000000    -0.353000000     1.325000000
H    -0.808000000    -0.492000000     2.367000000
C    -0.231000000     0.928000000     0.875000000
H    -0.401000000     1.786000000     1.521000000
C     0.170000000     1.117000000    -0.467000000
H     0.365000000     2.126000000    -0.859000000
C     0.489000000     0.037000000    -1.227000000
H     0.876000000     0.151000000    -2.236000000
C     0.252000000    -1.225000000    -0.762000000
H     0.489000000    -2.129000000    -1.317000000
C    -0.335000000    -1.455000000     0.473000000
C    -0.506000000    -2.811000000     1.024000000
O    -0.165000000    -3.758000000     0.410000000
O    -0.977000000    -3.027000000     2.177000000
O    -2.188000000     6.524000000    -2.497000000
H    -2.732000000     6.037000000    -3.116000000
H    -2.764000000     6.693000000    -1.752000000
O    -3.896000000     2.173000000     1.245000000
H    -3.974000000     1.374000000     0.724000000
H    -3.469000000     2.799000000     0.661000000
O     1.564000000     4.566000000    -0.524000000
H     1.673000000     4.389000000    -1.458000000
H     2.037000000     3.856000000    -0.089000000
O    -3.713000000    -4.395000000     4.722000000
H    -3.124000000    -4.368000000     5.477000000
H    -4.479000000    -4.877000000     5.033000000
O     1.302000000     0.360000000     4.598000000
H     0.846000000    -0.471000000     4.467000000
H     1.797000000     0.237000000     5.408000000
O    -3.552000000    -2.536000000     2.739000000
H    -2.690000000    -2.713000000     2.363000000
H    -3.660000000    -3.204000000     3.416000000
O    -3.996000000     0.471000000     3.998000000
H    -3.198000000     0.964000000     3.807000000
H    -4.102000000    -0.113000000     3.246000000
O    -2.392000000    -3.272000000    -4.405000000
H    -1.492000000    -3.120000000    -4.694000000
H    -2.558000000    -2.579000000    -3.765000000
O     2.503000000     1.837000000    -4.434000000
H     2.481000000     0.983000000    -4.002000000
H     2.392000000     1.638000000    -5.364000000
O    -0.380000000    -4.907000000    -2.310000000
H    -0.592000000    -4.520000000    -1.461000000
H    -0.941000000    -5.680000000    -2.369000000
O     2.432000000    -3.136000000     6.524000000
H     2.307000000    -3.800000000     7.201000000
H     2.053000000    -3.523000000     5.735000000
O     2.591000000    -0.984000000     2.449000000
H     1.944000000    -0.286000000     2.547000000
H     3.233000000    -0.632000000     1.833000000
O     3.545000000     2.256000000     0.475000000
H     4.047000000     1.503000000     0.786000000
H     3.589000000     2.195000000    -0.480000000
O     1.928000000    -1.790000000    -5.679000000
H     2.550000000    -1.438000000    -5.042000000
H     1.416000000    -2.431000000    -5.185000000
O    -0.522000000    -5.611000000     6.446000000
H     0.298000000    -5.185000000     6.195000000
H    -1.012000000    -4.933000000     6.911000000
O     0.658000000     7.351000000    -0.410000000
H     0.992000000     6.457000000    -0.480000000
H     0.017000000     7.423000000    -1.117000000
O    -2.521000000     3.720000000    -0.595000000
H    -2.026000000     3.161000000    -1.195000000
H    -2.074000000     4.566000000    -0.632000000
O    -2.237000000     7.274000000     2.489000000
H    -1.551000000     6.681000000     2.183000000
H    -2.784000000     7.426000000     1.719000000
O    -0.452000000     0.571000000    -7.317000000
H    -0.943000000     0.532000000    -6.496000000
H    -0.398000000    -0.340000000    -7.607000000
O     0.570000000     4.762000000    -6.454000000
H     0.931000000     5.370000000    -7.099000000
H     1.239000000     4.710000000    -5.772000000
O    -0.190000000    -1.986000000     4.625000000
H    -0.621000000    -2.170000000     3.790000000
H     0.085000000    -2.845000000     4.947000000
O    -2.399000000     2.974000000     3.284000000
H    -2.935000000     2.592000000     2.589000000
H    -2.734000000     3.865000000     3.383000000
O     2.564000000     2.891000000     4.819000000
H     2.290000000     3.501000000     4.134000000
H     1.994000000     2.130000000     4.705000000
O    -4.428000000    -2.620000000     0.272000000
H    -5.272000000    -3.063000000     0.186000000
H    -4.253000000    -2.617000000     1.213000000
O    -1.950000000     0.676000000    -5.033000000
H    -2.221000000     0.158000000    -4.275000000
H    -2.757000000     1.083000000    -5.347000000
O    -0.483000000    -5.652000000     2.695000000
H    -0.730000000    -4.771000000     2.974000000
H    -0.175000000    -5.542000000     1.795000000
O    -0.771000000     5.163000000     1.368000000
H    -0.055000000     5.096000000     0.736000000
H    -1.070000000     4.261000000     1.487000000
O    -0.443000000     4.357000000     5.217000000
H    -0.184000000     3.451000000     5.385000000
H    -1.246000000     4.285000000     4.702000000
O    -2.659000000    -4.775000000    -0.458000000
H    -2.037000000    -4.508000000     0.218000000
H    -3.302000000    -4.067000000    -0.486000000
O    -4.544000000     0.090000000    -0.289000000
H    -4.453000000    -0.743000000     0.174000000
H    -5.088000000    -0.116000000    -1.048000000
O    -3.494000000     4.641000000    -4.108000000
H    -4.011000000     3.841000000    -4.198000000
H    -3.931000000     5.274000000    -4.678000000
O     3.531000000    -0.732000000    -3.655000000
H     3.481000000    -1.397000000    -2.968000000
H     4.227000000    -1.040000000    -4.235000000
O    -1.971000000    -0.899000000     6.138000000
H    -1.248000000    -1.104000000     5.545000000
H    -2.663000000    -0.567000000     5.565000000
O     1.212000000    -4.513000000     4.626000000
H     1.783000000    -4.178000000     3.935000000
H     0.524000000    -4.987000000     4.159000000
O    -1.286000000    -7.440000000     4.487000000
H    -0.997000000    -6.966000000     3.707000000
H    -1.134000000    -6.829000000     5.208000000
O    -2.598000000    -6.970000000    -2.174000000
H    -3.478000000    -7.043000000    -2.544000000
H    -2.686000000    -6.325000000    -1.472000000
O     4.198000000     2.453000000    -2.357000000
H     3.622000000     2.188000000    -3.075000000
H     4.705000000     3.182000000    -2.713000000
O     2.520000000    -5.713000000    -2.053000000
H     1.605000000    -5.507000000    -1.865000000
H     2.651000000    -6.584000000    -1.679000000
O    -2.887000000    -7.541000000     1.438000000
H    -2.967000000    -6.594000000     1.330000000
H    -3.593000000    -7.904000000     0.902000000
O    -2.563000000    -0.804000000    -2.550000000
H    -3.439000000    -0.486000000    -2.331000000
H    -2.007000000    -0.478000000    -1.843000000
O     1.254000000     3.787000000    -3.138000000
H     1.698000000     2.990000000    -3.429000000
H     0.323000000     3.568000000    -3.170000000
O    -1.456000000     3.028000000    -3.441000000
H    -1.411000000     2.420000000    -4.179000000
H    -2.106000000     3.678000000    -3.705000000
O     0.296000000    -4.043000000    -4.819000000
H     0.075000000    -4.460000000    -3.986000000
H    -0.134000000    -4.585000000    -5.480000000
O     2.900000000    -3.877000000     2.479000000
H     2.944000000    -2.961000000     2.752000000
H     2.706000000    -3.838000000     1.542000000
O    -5.147000000     4.260000000    -1.296000000
H    -5.362000000     4.955000000    -0.674000000
H    -4.288000000     3.944000000    -1.014000000
O     2.418000000    -3.797000000    -0.153000000
H     1.469000000    -3.817000000    -0.030000000
H     2.584000000    -4.441000000    -0.841000000
O     3.007000000     4.403000000     2.200000000
H     3.353000000     5.148000000     1.709000000
H     3.204000000     3.643000000     1.652000000
O    -0.643000000     7.120000000    -4.846000000
H    -0.349000000     6.223000000    -5.008000000
H    -1.063000000     7.082000000    -3.987000000
