158
-3011.30648
C     0.208000000     0.965000000    -1.122000000
H     0.511000000     1.577000000    -1.968000000
C     1.295000000     0.291000000    -0.452000000
H     2.318000000     0.267000000    -0.818000000
C     0.901000000    -0.587000000     0.587000000
H     1.655000000    -1.088000000     1.138000000
C    -0.380000000    -0.755000000     0.917000000
H    -0.598000000    -1.506000000     1.672000000
C    -1.415000000     0.031000000     0.334000000
H    -2.413000000    -0.175000000     0.712000000
C    -1.122000000     0.844000000    -0.728000000
C    -2.304000000     1.610000000    -1.392000000
O    -2.061000000     2.391000000    -2.296000000
O    -3.476000000     1.384000000    -1.130000000
O     2.932000000     2.141000000     5.287000000
H     3.864000000     1.927000000     5.266000000
H     2.862000000     2.958000000     4.792000000
O    -5.451000000     2.644000000     0.240000000
H    -5.101000000     1.945000000    -0.314000000
H    -4.726000000     2.875000000     0.821000000
O    -7.741000000    -2.152000000    -1.699000000
H    -7.336000000    -3.012000000    -1.587000000
H    -7.129000000    -1.544000000    -1.286000000
O    -8.017000000     3.402000000    -0.550000000
H    -7.884000000     2.943000000    -1.379000000
H    -7.295000000     3.106000000     0.005000000
O    -5.400000000    -0.595000000    -0.695000000
H    -5.618000000    -0.577000000     0.237000000
H    -4.675000000     0.023000000    -0.784000000
O    -2.114000000    -4.033000000     1.595000000
H    -2.202000000    -3.831000000     0.664000000
H    -2.975000000    -4.362000000     1.852000000
O     2.747000000    -0.382000000    -5.277000000
H     2.781000000     0.458000000    -4.820000000
H     2.196000000    -0.935000000    -4.723000000
O     1.446000000     4.421000000    -2.645000000
H     1.546000000     5.308000000    -2.990000000
H     2.295000000     4.221000000    -2.249000000
O     3.216000000     2.192000000    -4.600000000
H     3.085000000     2.336000000    -5.537000000
H     3.410000000     3.062000000    -4.249000000
O     5.625000000     2.256000000     0.520000000
H     5.732000000     2.949000000    -0.132000000
H     4.819000000     2.485000000     0.983000000
O    -0.504000000     0.392000000    -5.670000000
H    -0.053000000     0.036000000    -6.434000000
H    -0.305000000     1.329000000    -5.689000000
O    -4.072000000     5.709000000    -3.828000000
H    -4.115000000     5.018000000    -3.167000000
H    -3.421000000     5.398000000    -4.457000000
O    -3.790000000    -0.340000000    -3.352000000
H    -3.318000000     0.334000000    -2.862000000
H    -4.619000000    -0.439000000    -2.885000000
O    -2.039000000     5.028000000    -5.615000000
H    -1.637000000     5.863000000    -5.375000000
H    -1.364000000     4.375000000    -5.429000000
O     1.975000000    -5.635000000     3.041000000
H     1.999000000    -6.123000000     2.217000000
H     2.648000000    -6.047000000     3.582000000
O    -5.728000000    -0.425000000    -5.611000000
H    -4.992000000    -0.196000000    -5.043000000
H    -6.503000000    -0.151000000    -5.121000000
O     3.653000000    -3.421000000     2.403000000
H     3.598000000    -4.079000000     3.096000000
H     3.809000000    -2.598000000     2.867000000
O    -3.544000000     4.910000000     1.451000000
H    -2.687000000     4.838000000     1.870000000
H    -4.127000000     5.211000000     2.148000000
O     2.364000000    -3.471000000    -0.202000000
H     2.661000000    -4.125000000     0.430000000
H     2.061000000    -2.739000000     0.335000000
O     6.022000000    -1.342000000    -0.705000000
H     5.499000000    -2.118000000    -0.504000000
H     5.481000000    -0.607000000    -0.416000000
O    -2.513000000    -1.525000000    -5.492000000
H    -1.799000000    -0.934000000    -5.730000000
H    -2.687000000    -1.333000000    -4.570000000
O     3.734000000     3.628000000    -1.524000000
H     4.554000000     4.113000000    -1.611000000
H     3.591000000     3.567000000    -0.579000000
O    -1.793000000    -4.962000000    -1.620000000
H    -2.329000000    -4.192000000    -1.429000000
H    -2.201000000    -5.352000000    -2.392000000
O     0.275000000     2.756000000     1.377000000
H     0.425000000     1.957000000     0.871000000
H     0.227000000     3.450000000     0.720000000
O    -3.071000000    -2.642000000    -1.030000000
H    -2.798000000    -1.816000000    -1.429000000
H    -3.729000000    -2.389000000    -0.382000000
O     1.151000000     0.070000000     5.218000000
H     1.817000000     0.744000000     5.349000000
H     0.416000000     0.534000000     4.817000000
O    -0.151000000     7.505000000    -0.870000000
H     0.515000000     7.460000000    -1.556000000
H    -0.524000000     6.624000000    -0.840000000
O    -3.111000000    -0.243000000     4.145000000
H    -2.511000000    -0.936000000     4.422000000
H    -2.594000000     0.560000000     4.210000000
O     4.379000000    -0.441000000     2.531000000
H     5.251000000    -0.225000000     2.859000000
H     4.059000000     0.375000000     2.145000000
O    -0.300000000    -1.462000000     6.993000000
H     0.355000000    -0.960000000     6.508000000
H    -0.847000000    -0.799000000     7.414000000
O     5.214000000    -2.036000000    -4.654000000
H     4.575000000    -1.386000000    -4.947000000
H     4.842000000    -2.391000000    -3.847000000
O     5.547000000    -3.872000000     0.404000000
H     6.234000000    -4.132000000     1.017000000
H     4.773000000    -3.741000000     0.952000000
O    -1.659000000    -2.542000000     4.298000000
H    -1.625000000    -3.123000000     5.057000000
H    -1.551000000    -3.124000000     3.546000000
O    -6.260000000    -2.769000000     1.758000000
H    -5.887000000    -1.891000000     1.834000000
H    -6.970000000    -2.784000000     2.401000000
O     2.412000000    -2.277000000     4.835000000
H     1.893000000    -2.922000000     4.355000000
H     1.821000000    -1.534000000     4.953000000
O     3.448000000    -2.850000000    -2.835000000
H     2.796000000    -3.164000000    -3.462000000
H     3.050000000    -3.005000000    -1.979000000
O     3.165000000     3.243000000     1.794000000
H     2.472000000     2.587000000     1.723000000
H     2.747000000     3.985000000     2.232000000
O    -2.608000000     2.302000000    -6.997000000
H    -3.554000000     2.202000000    -7.099000000
H    -2.509000000     2.942000000    -6.292000000
O    -5.192000000    -0.427000000     2.368000000
H    -5.739000000     0.251000000     2.765000000
H    -4.384000000    -0.415000000     2.881000000
O     0.449000000    -1.394000000    -4.011000000
H     0.277000000    -1.360000000    -3.070000000
H    -0.011000000    -0.634000000    -4.366000000
O     0.930000000    -5.459000000    -1.766000000
H     1.300000000    -4.856000000    -1.122000000
H    -0.005000000    -5.255000000    -1.778000000
O    -4.265000000     3.857000000    -2.226000000
H    -4.753000000     3.975000000    -1.412000000
H    -3.727000000     3.080000000    -2.072000000
O    -1.103000000     1.776000000     3.623000000
H    -0.432000000     2.152000000     3.053000000
H    -1.405000000     2.513000000     4.155000000
O     3.629000000    -1.863000000     7.205000000
H     3.777000000    -2.642000000     7.742000000
H     3.219000000    -2.197000000     6.407000000
O    -0.428000000     3.155000000    -4.295000000
H    -0.977000000     2.771000000    -3.612000000
H     0.159000000     3.748000000    -3.825000000
O    -0.386000000    -5.166000000     4.760000000
H    -1.203000000    -5.639000000     4.603000000
H     0.187000000    -5.432000000     4.040000000
O    -7.311000000     2.782000000    -3.231000000
H    -7.708000000     3.459000000    -3.779000000
H    -6.374000000     2.839000000    -3.422000000
O    -0.735000000     4.465000000    -0.606000000
H    -1.537000000     3.982000000    -0.804000000
H    -0.152000000     4.274000000    -1.341000000
