158
-3042.96500
C    -0.520000000    -0.029000000    -1.406000000
H    -0.789000000    -0.195000000    -2.447000000
C     0.740000000     0.394000000    -1.002000000
H     1.467000000     0.634000000    -1.774000000
C     1.088000000     0.472000000     0.328000000
H     2.069000000     0.752000000     0.664000000
C     0.195000000     0.029000000     1.303000000
H     0.399000000    -0.057000000     2.367000000
C    -1.064000000    -0.448000000     0.913000000
H    -1.702000000    -0.993000000     1.604000000
C    -1.385000000    -0.508000000    -0.448000000
C    -2.592000000    -1.217000000    -0.921000000
O    -2.976000000    -1.201000000    -2.079000000
O    -3.342000000    -1.693000000    -0.075000000
O    -2.601000000    -5.151000000    -4.707000000
H    -2.473000000    -4.837000000    -5.602000000
H    -3.487000000    -4.869000000    -4.479000000
O     3.404000000    -1.790000000    -0.864000000
H     2.544000000    -1.552000000    -0.519000000
H     3.272000000    -1.857000000    -1.810000000
O     1.160000000     4.090000000    -3.572000000
H     0.792000000     4.973000000    -3.556000000
H     1.669000000     4.027000000    -2.764000000
O    -0.990000000    -2.910000000    -3.760000000
H    -1.843000000    -2.508000000    -3.597000000
H    -1.185000000    -3.671000000    -4.307000000
O     0.705000000     3.532000000     2.099000000
H    -0.109000000     3.155000000     1.764000000
H     1.393000000     2.964000000     1.751000000
O     1.936000000     0.184000000    -4.568000000
H     1.692000000    -0.604000000    -5.054000000
H     1.369000000     0.869000000    -4.923000000
O    -1.158000000     2.369000000    -3.648000000
H    -0.246000000     2.571000000    -3.858000000
H    -1.278000000     2.699000000    -2.758000000
O     0.347000000     1.641000000    -6.222000000
H     0.402000000     2.046000000    -7.088000000
H    -0.440000000     2.020000000    -5.830000000
O     5.042000000     1.481000000    -1.193000000
H     5.000000000     1.092000000    -0.320000000
H     4.998000000     0.734000000    -1.790000000
O     2.225000000     2.662000000     4.646000000
H     2.310000000     3.488000000     4.170000000
H     1.744000000     2.892000000     5.441000000
O     0.338000000    -1.530000000    -5.881000000
H    -0.001000000    -2.028000000    -5.137000000
H    -0.272000000    -1.719000000    -6.594000000
O     3.448000000     4.976000000     3.598000000
H     2.830000000     5.604000000     3.224000000
H     4.284000000     5.443000000     3.614000000
O    -4.666000000     3.244000000    -1.030000000
H    -4.003000000     3.371000000    -0.350000000
H    -4.866000000     2.309000000    -0.997000000
O    -6.297000000    -2.274000000    -0.428000000
H    -5.413000000    -1.915000000    -0.509000000
H    -6.869000000    -1.572000000    -0.739000000
O    -3.937000000     2.279000000    -3.679000000
H    -2.986000000     2.305000000    -3.571000000
H    -4.282000000     2.384000000    -2.793000000
O     3.275000000     3.586000000    -0.931000000
H     3.862000000     2.898000000    -1.247000000
H     3.044000000     3.314000000    -0.043000000
O     1.492000000    -0.999000000     4.608000000
H     1.066000000    -1.789000000     4.273000000
H     1.349000000    -1.033000000     5.554000000
O     0.151000000    -3.487000000     4.017000000
H     0.138000000    -4.443000000     3.965000000
H    -0.740000000    -3.248000000     4.271000000
O     3.340000000     2.754000000     1.875000000
H     3.334000000     1.992000000     2.454000000
H     3.470000000     3.500000000     2.461000000
O    -3.734000000     2.069000000     3.041000000
H    -3.910000000     1.224000000     2.628000000
H    -4.558000000     2.305000000     3.466000000
O     1.415000000    -2.371000000     1.433000000
H     1.056000000    -1.560000000     1.072000000
H     0.957000000    -2.485000000     2.266000000
O     5.837000000    -1.509000000     3.747000000
H     5.436000000    -0.641000000     3.786000000
H     5.688000000    -1.802000000     2.848000000
O    -3.807000000    -1.718000000    -4.401000000
H    -3.577000000    -1.507000000    -3.496000000
H    -4.314000000    -2.528000000    -4.337000000
O    -1.461000000     3.346000000    -1.255000000
H    -1.158000000     4.222000000    -1.014000000
H    -1.390000000     2.837000000    -0.448000000
O     4.398000000     6.403000000    -1.454000000
H     4.760000000     6.200000000    -2.316000000
H     4.122000000     5.555000000    -1.105000000
O    -2.952000000    -4.392000000    -1.224000000
H    -2.908000000    -3.438000000    -1.157000000
H    -3.676000000    -4.639000000    -0.649000000
O    -7.411000000    -4.655000000    -0.668000000
H    -6.899000000    -3.870000000    -0.474000000
H    -7.994000000    -4.753000000     0.085000000
O     6.949000000    -1.228000000    -2.231000000
H     5.992000000    -1.232000000    -2.192000000
H     7.182000000    -2.118000000    -2.496000000
O    -0.776000000     3.848000000     4.368000000
H    -0.531000000     2.997000000     4.732000000
H    -0.422000000     3.839000000     3.479000000
O    -4.717000000    -5.651000000     0.928000000
H    -5.504000000    -5.343000000     0.477000000
H    -4.569000000    -6.529000000     0.579000000
O    -2.709000000     0.473000000     5.193000000
H    -3.131000000     0.953000000     4.481000000
H    -1.782000000     0.704000000     5.122000000
O     3.420000000     0.497000000     3.278000000
H     2.828000000    -0.234000000     3.455000000
H     3.306000000     1.084000000     4.025000000
O    -6.600000000     1.938000000     0.521000000
H    -7.390000000     1.432000000     0.332000000
H    -5.880000000     1.334000000     0.339000000
O     4.392000000    -0.093000000    -3.473000000
H     3.496000000     0.161000000    -3.693000000
H     4.774000000    -0.368000000    -4.307000000
O     5.173000000     2.351000000     4.782000000
H     5.498000000     2.595000000     5.648000000
H     4.364000000     2.852000000     4.679000000
O     6.936000000     2.106000000     2.399000000
H     6.554000000     1.308000000     2.034000000
H     6.361000000     2.334000000     3.131000000
O    -2.531000000    -2.479000000     4.429000000
H    -3.088000000    -1.891000000     4.938000000
H    -2.979000000    -2.564000000     3.587000000
O     2.530000000    -4.450000000     0.264000000
H     2.869000000    -3.935000000    -0.468000000
H     2.050000000    -3.818000000     0.799000000
O     1.353000000    -3.315000000    -2.311000000
H     0.457000000    -3.092000000    -2.562000000
H     1.526000000    -4.147000000    -2.751000000
O     3.445000000     2.782000000    -4.795000000
H     3.262000000     1.874000000    -4.552000000
H     2.633000000     3.250000000    -4.603000000
O    -2.185000000    -5.496000000     2.156000000
H    -2.120000000    -4.542000000     2.136000000
H    -3.120000000    -5.675000000     2.053000000
O     4.869000000     0.053000000     1.226000000
H     4.239000000    -0.458000000     0.719000000
H     4.457000000     0.159000000     2.084000000
O    -4.890000000    -0.041000000     1.745000000
H    -5.133000000    -0.742000000     2.350000000
H    -4.417000000    -0.485000000     1.042000000
O    -0.158000000     1.127000000     5.153000000
H     0.496000000     0.487000000     4.871000000
H     0.020000000     1.257000000     6.084000000
O    -2.902000000     0.521000000    -5.758000000
H    -2.910000000     1.010000000    -4.935000000
H    -3.297000000    -0.323000000    -5.538000000
O    -3.695000000    -2.853000000     2.150000000
H    -3.687000000    -2.649000000     1.215000000
H    -4.623000000    -2.940000000     2.368000000
O    -5.066000000     0.438000000    -1.596000000
H    -4.392000000    -0.226000000    -1.741000000
H    -5.850000000     0.078000000    -2.010000000
O    -1.964000000     3.199000000     1.551000000
H    -2.394000000     4.013000000     1.292000000
H    -2.450000000     2.905000000     2.321000000
