158
-3065.67073
C    -0.034000000    -1.485000000    -0.045000000
H     0.115000000    -2.560000000    -0.118000000
C     1.084000000    -0.748000000     0.293000000
H     2.020000000    -1.242000000     0.542000000
C     1.015000000     0.643000000     0.274000000
H     1.805000000     1.279000000     0.404000000
C    -0.210000000     1.248000000     0.003000000
H    -0.230000000     2.317000000    -0.192000000
C    -1.353000000     0.506000000    -0.295000000
H    -2.223000000     1.084000000    -0.593000000
C    -1.293000000    -0.910000000    -0.327000000
C    -2.521000000    -1.645000000    -0.851000000
O    -2.489000000    -2.905000000    -0.958000000
O    -3.621000000    -1.090000000    -0.934000000
O    -2.246000000    -7.079000000    -1.108000000
H    -1.849000000    -7.540000000    -1.847000000
H    -3.099000000    -6.793000000    -1.434000000
O     1.652000000     5.352000000    -1.170000000
H     1.978000000     4.585000000    -1.640000000
H     1.389000000     5.962000000    -1.860000000
O     1.766000000     5.023000000     4.815000000
H     1.381000000     4.308000000     4.308000000
H     1.823000000     4.681000000     5.707000000
O    -4.048000000    -6.085000000    -3.996000000
H    -4.215000000    -5.758000000    -4.881000000
H    -3.336000000    -5.534000000    -3.669000000
O    -3.768000000     1.985000000    -2.401000000
H    -3.769000000     2.874000000    -2.048000000
H    -4.106000000     1.443000000    -1.688000000
O    -4.452000000    -5.473000000    -1.141000000
H    -5.366000000    -5.427000000    -0.859000000
H    -4.137000000    -4.571000000    -1.078000000
O     6.372000000     2.601000000     2.609000000
H     6.475000000     2.609000000     1.657000000
H     7.217000000     2.900000000     2.944000000
O     0.659000000     3.313000000     2.983000000
H     0.106000000     2.545000000     3.124000000
H     1.393000000     2.988000000     2.461000000
O    -3.372000000     4.317000000    -1.479000000
H    -2.509000000     4.579000000    -1.158000000
H    -3.829000000     5.143000000    -1.638000000
O    -0.591000000     5.661000000     2.415000000
H    -0.323000000     4.829000000     2.806000000
H     0.217000000     6.172000000     2.361000000
O     1.681000000    -5.123000000    -1.126000000
H     1.539000000    -5.064000000    -2.070000000
H     0.802000000    -5.192000000    -0.755000000
O     1.425000000     0.591000000    -4.005000000
H     1.490000000    -0.244000000    -4.469000000
H     0.487000000     0.776000000    -3.974000000
O     4.700000000     1.411000000    -0.009000000
H     4.007000000     1.216000000    -0.640000000
H     4.253000000     1.869000000     0.703000000
O     0.084000000     3.866000000    -4.628000000
H     1.000000000     3.735000000    -4.383000000
H    -0.401000000     3.250000000    -4.080000000
O     6.492000000    -0.747000000    -0.597000000
H     5.913000000    -1.432000000    -0.261000000
H     5.947000000     0.040000000    -0.613000000
O    -1.169000000     1.817000000    -3.773000000
H    -1.920000000     2.164000000    -3.293000000
H    -1.360000000     0.884000000    -3.875000000
O     5.257000000    -4.316000000     2.652000000
H     4.934000000    -3.576000000     3.167000000
H     4.493000000    -4.616000000     2.159000000
O    -1.143000000     5.504000000    -0.516000000
H    -1.384000000     5.853000000     0.342000000
H    -0.189000000     5.569000000    -0.542000000
O    -4.383000000    -3.363000000     1.380000000
H    -3.726000000    -2.961000000     0.811000000
H    -4.003000000    -4.205000000     1.628000000
O     5.430000000     2.390000000    -3.512000000
H     5.936000000     1.960000000    -2.824000000
H     5.722000000     3.302000000    -3.490000000
O     3.813000000    -2.473000000     4.282000000
H     3.452000000    -1.587000000     4.243000000
H     3.403000000    -2.864000000     5.053000000
O    -0.018000000    -1.685000000     3.129000000
H    -0.367000000    -1.415000000     2.280000000
H     0.217000000    -2.606000000     3.010000000
O     0.180000000    -4.353000000    -5.847000000
H    -0.127000000    -4.118000000    -4.972000000
H     1.126000000    -4.209000000    -5.816000000
O    -0.798000000     1.153000000     3.644000000
H    -0.196000000     0.475000000     3.337000000
H    -0.989000000     0.912000000     4.550000000
O    -3.435000000     0.428000000     2.884000000
H    -2.517000000     0.697000000     2.848000000
H    -3.847000000     0.879000000     2.147000000
O    -7.020000000     0.619000000    -3.730000000
H    -7.316000000     1.197000000    -3.027000000
H    -6.422000000     1.158000000    -4.248000000
O     2.786000000    -4.428000000     1.430000000
H     2.063000000    -3.977000000     1.865000000
H     2.436000000    -4.668000000     0.572000000
O     3.594000000     2.285000000     2.328000000
H     3.360000000     3.127000000     1.937000000
H     4.476000000     2.419000000     2.675000000
O     4.300000000    -2.646000000     0.048000000
H     3.698000000    -3.039000000     0.680000000
H     4.918000000    -3.346000000    -0.162000000
O    -5.451000000    -1.447000000    -2.985000000
H    -4.873000000    -1.122000000    -2.295000000
H    -6.097000000    -0.751000000    -3.106000000
O     2.437000000     3.069000000    -3.152000000
H     3.351000000     3.135000000    -3.427000000
H     2.185000000     2.172000000    -3.373000000
O    -0.786000000    -4.996000000    -0.277000000
H    -1.203000000    -5.773000000    -0.651000000
H    -1.356000000    -4.272000000    -0.535000000
O    -3.262000000     5.567000000     2.404000000
H    -3.470000000     4.742000000     1.966000000
H    -2.329000000     5.699000000     2.237000000
O     1.995000000    -2.577000000    -2.862000000
H     2.244000000    -2.264000000    -1.993000000
H     2.511000000    -2.042000000    -3.466000000
O     2.937000000     4.319000000     1.026000000
H     2.397000000     4.584000000     0.281000000
H     2.847000000     5.036000000     1.654000000
O    -3.586000000    -5.889000000     1.476000000
H    -4.160000000    -6.651000000     1.554000000
H    -3.527000000    -5.729000000     0.534000000
O    -8.412000000    -0.519000000     0.479000000
H    -9.301000000    -0.804000000     0.269000000
H    -7.854000000    -1.240000000     0.187000000
O    -1.974000000    -0.765000000    -4.180000000
H    -2.895000000    -0.548000000    -4.325000000
H    -1.909000000    -1.693000000    -4.403000000
O    -6.403000000    -2.545000000    -0.186000000
H    -6.007000000    -2.229000000    -0.998000000
H    -5.666000000    -2.872000000     0.329000000
O    -0.707000000    -3.588000000    -3.331000000
H     0.119000000    -3.158000000    -3.106000000
H    -1.354000000    -3.179000000    -2.757000000
O     3.009000000    -0.098000000     4.255000000
H     3.181000000     0.583000000     3.605000000
H     2.416000000     0.314000000     4.883000000
O     0.172000000    -4.172000000     2.295000000
H    -0.303000000    -4.294000000     1.474000000
H    -0.388000000    -4.575000000     2.959000000
O     5.148000000     6.287000000    -1.022000000
H     4.206000000     6.422000000    -0.924000000
H     5.327000000     5.481000000    -0.537000000
O    -4.022000000     3.002000000     1.614000000
H    -4.885000000     3.235000000     1.957000000
H    -4.208000000     2.485000000     0.830000000
O    -4.589000000     1.748000000    -4.962000000
H    -4.809000000     2.679000000    -4.955000000
H    -4.068000000     1.618000000    -4.170000000
O    -5.372000000    -2.091000000     3.771000000
H    -4.840000000    -2.514000000     3.097000000
H    -5.559000000    -1.221000000     3.418000000
O    -4.948000000     0.854000000    -0.059000000
H    -4.401000000     0.087000000    -0.227000000
H    -5.606000000     0.548000000     0.565000000
O     7.244000000     3.564000000    -0.109000000
H     7.619000000     4.331000000     0.325000000
H     7.997000000     3.115000000    -0.494000000
