158
-3031.84675
C    -0.814000000    -0.053000000     1.288000000
H    -1.439000000     0.069000000     2.169000000
C    -0.083000000     1.053000000     0.811000000
H    -0.247000000     1.993000000     1.332000000
C     0.618000000     1.003000000    -0.400000000
H     1.155000000     1.929000000    -0.756000000
C     0.693000000    -0.239000000    -1.021000000
H     1.352000000    -0.392000000    -1.872000000
C     0.105000000    -1.361000000    -0.562000000
H     0.171000000    -2.351000000    -1.006000000
C    -0.710000000    -1.253000000     0.576000000
C    -1.560000000    -2.469000000     0.926000000
O    -1.870000000    -3.300000000     0.054000000
O    -1.860000000    -2.639000000     2.126000000
O     4.331000000     6.731000000    -0.461000000
H     3.857000000     6.272000000     0.232000000
H     5.177000000     6.286000000    -0.508000000
O    -2.106000000     6.623000000    -1.112000000
H    -2.063000000     5.689000000    -1.318000000
H    -2.999000000     6.878000000    -1.344000000
O    -6.658000000     0.084000000     3.464000000
H    -6.874000000    -0.249000000     2.593000000
H    -5.742000000     0.355000000     3.397000000
O    -4.412000000     1.967000000     1.771000000
H    -4.986000000     1.327000000     1.349000000
H    -3.791000000     2.220000000     1.087000000
O     1.051000000     4.876000000    -0.943000000
H     1.260000000     4.508000000    -1.801000000
H     1.785000000     4.617000000    -0.386000000
O     6.008000000     3.766000000    -2.320000000
H     6.956000000     3.685000000    -2.427000000
H     5.883000000     4.633000000    -1.935000000
O    -3.255000000    -4.691000000     5.058000000
H    -3.168000000    -4.537000000     5.998000000
H    -3.922000000    -5.375000000     4.987000000
O     0.982000000     1.979000000     4.908000000
H     0.499000000     1.153000000     4.871000000
H     1.575000000     1.876000000     5.652000000
O    -4.154000000    -3.695000000     2.295000000
H    -3.362000000    -3.196000000     2.096000000
H    -4.152000000    -3.777000000     3.249000000
O    -3.834000000    -0.410000000     3.997000000
H    -3.463000000     0.471000000     4.049000000
H    -3.548000000    -0.740000000     3.146000000
O    -0.424000000    -4.511000000    -3.245000000
H    -0.581000000    -4.922000000    -2.395000000
H    -0.646000000    -3.590000000    -3.110000000
O     4.178000000     2.764000000    -4.232000000
H     3.940000000     1.869000000    -4.473000000
H     4.634000000     2.673000000    -3.395000000
O    -0.917000000    -5.740000000    -0.852000000
H    -1.213000000    -5.055000000    -0.253000000
H    -1.682000000    -6.304000000    -0.967000000
O     2.529000000    -0.374000000     2.534000000
H     1.715000000    -0.138000000     2.090000000
H     2.758000000    -1.231000000     2.175000000
O     6.860000000     2.804000000     0.482000000
H     7.195000000     1.926000000     0.666000000
H     6.013000000     2.654000000     0.062000000
O     4.011000000    -0.047000000    -4.676000000
H     4.891000000     0.010000000    -5.049000000
H     4.013000000    -0.865000000    -4.179000000
O     0.263000000     7.324000000     0.072000000
H     0.600000000     6.553000000    -0.384000000
H    -0.535000000     7.554000000    -0.403000000
O    -2.728000000     2.664000000    -0.577000000
H    -2.157000000     2.292000000    -1.250000000
H    -3.516000000     2.928000000    -1.051000000
O    -0.996000000     6.647000000     2.505000000
H    -1.139000000     5.719000000     2.322000000
H    -0.909000000     7.050000000     1.641000000
O     1.550000000    -0.124000000    -6.295000000
H     0.797000000    -0.225000000    -5.712000000
H     2.294000000     0.002000000    -5.706000000
O    -0.288000000     5.917000000    -4.228000000
H     0.412000000     5.845000000    -3.578000000
H    -1.095000000     5.845000000    -3.719000000
O    -0.163000000    -2.767000000     4.740000000
H    -0.520000000    -2.866000000     3.858000000
H     0.763000000    -2.563000000     4.602000000
O    -2.592000000     2.018000000     4.082000000
H    -2.452000000     2.359000000     3.198000000
H    -2.052000000     2.577000000     4.642000000
O    -4.227000000    -6.614000000    -2.522000000
H    -4.201000000    -6.401000000    -3.455000000
H    -4.780000000    -5.934000000    -2.137000000
O     2.744000000     3.043000000     3.121000000
H     3.040000000     2.234000000     2.705000000
H     2.146000000     2.754000000     3.810000000
O    -0.828000000    -0.569000000    -4.164000000
H    -1.263000000    -0.704000000    -3.323000000
H    -1.420000000    -0.964000000    -4.806000000
O    -1.295000000    -5.285000000     3.072000000
H    -1.669000000    -5.243000000     3.952000000
H    -1.353000000    -4.388000000     2.744000000
O     6.513000000     0.739000000    -2.531000000
H     6.127000000     0.803000000    -1.658000000
H     7.279000000     1.312000000    -2.498000000
O    -1.133000000     4.412000000     0.873000000
H    -0.426000000     4.590000000     0.253000000
H    -1.735000000     3.843000000     0.393000000
O    -6.954000000    -3.421000000     1.819000000
H    -6.047000000    -3.637000000     2.037000000
H    -6.941000000    -2.480000000     1.644000000
O     0.448000000     4.691000000     5.600000000
H     0.975000000     4.053000000     5.117000000
H    -0.381000000     4.727000000     5.123000000
O    -4.172000000    -4.395000000    -0.823000000
H    -3.423000000    -3.909000000    -0.478000000
H    -4.765000000    -4.482000000    -0.076000000
O    -2.552000000     4.463000000    -3.153000000
H    -2.972000000     3.649000000    -3.431000000
H    -3.052000000     5.152000000    -3.591000000
O     3.847000000    -2.176000000    -3.105000000
H     3.937000000    -1.613000000    -2.336000000
H     4.144000000    -3.036000000    -2.809000000
O    -1.787000000    -1.810000000     6.889000000
H    -1.089000000    -1.833000000     6.235000000
H    -2.589000000    -1.958000000     6.388000000
O     3.587000000     5.393000000    -4.346000000
H     3.741000000     4.455000000    -4.231000000
H     3.281000000     5.477000000    -5.249000000
O     4.282000000     2.077000000    -0.406000000
H     3.813000000     2.431000000    -1.161000000
H     4.150000000     1.131000000    -0.464000000
O     1.968000000    -4.884000000    -0.168000000
H     1.939000000    -4.575000000    -1.074000000
H     1.209000000    -5.462000000    -0.088000000
O     0.039000000     3.685000000    -6.027000000
H    -0.078000000     4.528000000    -5.590000000
H    -0.252000000     3.039000000    -5.383000000
O    -2.814000000    -7.234000000     1.537000000
H    -2.631000000    -6.411000000     1.991000000
H    -3.765000000    -7.242000000     1.432000000
O    -1.985000000    -2.287000000    -2.384000000
H    -2.927000000    -2.273000000    -2.549000000
H    -1.898000000    -2.708000000    -1.528000000
O     1.674000000     3.245000000    -2.871000000
H     2.358000000     3.255000000    -3.540000000
H     0.950000000     2.768000000    -3.275000000
O    -0.707000000     2.227000000    -3.953000000
H    -0.748000000     1.274000000    -3.869000000
H    -1.197000000     2.555000000    -3.199000000
O     1.885000000    -4.868000000    -4.747000000
H     1.798000000    -4.151000000    -5.374000000
H     1.141000000    -4.759000000    -4.154000000
O     3.444000000    -2.916000000     1.094000000
H     2.879000000    -3.570000000     0.684000000
H     4.327000000    -3.277000000     1.011000000
O     4.148000000    -0.763000000    -0.729000000
H     3.701000000    -1.174000000     0.010000000
H     4.927000000    -1.302000000    -0.868000000
O     1.262000000    -6.875000000     3.720000000
H     0.783000000    -6.194000000     3.247000000
H     2.110000000    -6.477000000     3.917000000
O     3.051000000     4.271000000     0.644000000
H     2.657000000     4.056000000     1.490000000
H     3.887000000     3.804000000     0.645000000
