158
-3050.37456
C     1.355000000     0.136000000    -0.652000000
H     2.372000000     0.050000000    -1.025000000
C     1.155000000     0.154000000     0.772000000
H     2.007000000     0.157000000     1.448000000
C    -0.147000000     0.078000000     1.230000000
H    -0.358000000     0.071000000     2.247000000
C    -1.246000000     0.136000000     0.335000000
H    -2.272000000     0.248000000     0.677000000
C    -1.003000000     0.057000000    -1.066000000
H    -1.855000000     0.080000000    -1.739000000
C     0.267000000     0.088000000    -1.561000000
C     0.509000000    -0.121000000    -2.999000000
O     1.637000000    -0.247000000    -3.439000000
O    -0.411000000    -0.587000000    -3.683000000
O    -5.647000000     0.962000000     1.798000000
H    -6.325000000     1.422000000     1.303000000
H    -5.392000000     0.231000000     1.234000000
O     0.963000000    -3.941000000     3.054000000
H     0.450000000    -3.168000000     3.291000000
H     1.244000000    -3.775000000     2.154000000
O     4.230000000    -1.314000000     0.315000000
H     4.214000000    -0.404000000     0.017000000
H     3.788000000    -1.802000000    -0.380000000
O    -5.625000000    -1.591000000     0.294000000
H    -5.774000000    -1.533000000    -0.650000000
H    -4.906000000    -2.215000000     0.385000000
O     1.763000000    -0.754000000    -8.469000000
H     0.812000000    -0.658000000    -8.524000000
H     1.910000000    -1.216000000    -7.644000000
O    -1.516000000     1.494000000    -5.957000000
H    -0.792000000     0.923000000    -5.703000000
H    -1.907000000     1.062000000    -6.716000000
O    -4.387000000     1.540000000     6.105000000
H    -4.140000000     0.661000000     5.818000000
H    -5.327000000     1.481000000     6.277000000
O    -3.839000000     3.209000000     2.689000000
H    -3.992000000     3.754000000     1.917000000
H    -4.503000000     2.522000000     2.632000000
O    -0.107000000    -1.789000000     4.269000000
H    -0.426000000    -2.059000000     5.130000000
H     0.070000000    -0.853000000     4.362000000
O    -0.521000000     3.920000000     0.740000000
H    -0.486000000     3.033000000     0.380000000
H    -0.386000000     4.491000000    -0.017000000
O    -0.183000000     3.146000000    -3.465000000
H    -1.048000000     3.298000000    -3.082000000
H     0.208000000     4.017000000    -3.527000000
O    -1.647000000     2.444000000     4.379000000
H    -2.430000000     2.750000000     3.921000000
H    -1.981000000     2.035000000     5.177000000
O    -4.923000000    -0.723000000     4.267000000
H    -5.328000000    -0.109000000     3.654000000
H    -4.226000000    -1.141000000     3.762000000
O    -4.470000000    -2.710000000    -2.265000000
H    -4.385000000    -3.602000000    -2.602000000
H    -3.795000000    -2.645000000    -1.589000000
O     5.051000000    -0.517000000    -3.317000000
H     4.969000000     0.220000000    -2.713000000
H     5.810000000    -0.299000000    -3.859000000
O    -2.339000000     4.456000000    -1.899000000
H    -2.206000000     5.312000000    -1.491000000
H    -3.282000000     4.305000000    -1.837000000
O    -3.057000000    -2.750000000     0.550000000
H    -2.280000000    -3.306000000     0.502000000
H    -2.906000000    -2.191000000     1.312000000
O    -0.911000000    -1.789000000    -7.597000000
H    -1.676000000    -1.215000000    -7.628000000
H    -1.275000000    -2.674000000    -7.626000000
O     0.781000000     0.781000000     4.748000000
H     1.143000000     1.334000000     5.441000000
H     0.155000000     1.345000000     4.294000000
O    -3.146000000     1.699000000    -3.518000000
H    -2.276000000     1.415000000    -3.799000000
H    -3.672000000     1.686000000    -4.318000000
O    -1.119000000    -3.059000000     6.593000000
H    -0.979000000    -3.845000000     6.064000000
H    -1.570000000    -3.374000000     7.376000000
O     3.609000000    -0.123000000     3.697000000
H     4.098000000     0.691000000     3.819000000
H     2.717000000     0.090000000     3.970000000
O     1.519000000     2.033000000    -8.009000000
H     1.080000000     1.763000000    -7.202000000
H     1.948000000     1.239000000    -8.325000000
O     1.725000000    -2.768000000     0.676000000
H     1.677000000    -2.699000000    -0.278000000
H     1.815000000    -1.863000000     0.977000000
O     1.543000000     2.828000000     2.366000000
H     0.719000000     2.789000000     1.881000000
H     2.157000000     3.246000000     1.762000000
O     2.872000000     4.021000000     0.280000000
H     3.701000000     3.566000000     0.126000000
H     2.717000000     4.514000000    -0.525000000
O     4.760000000     1.024000000    -0.889000000
H     4.558000000     1.842000000    -1.343000000
H     5.714000000     1.028000000    -0.804000000
O    -2.386000000    -4.235000000    -6.311000000
H    -2.212000000    -4.883000000    -5.628000000
H    -2.513000000    -3.414000000    -5.836000000
O    -4.942000000     4.646000000     0.723000000
H    -5.760000000     5.065000000     0.456000000
H    -4.779000000     3.986000000     0.048000000
O    -2.566000000    -0.917000000     7.117000000
H    -2.087000000    -1.708000000     6.871000000
H    -3.434000000    -1.232000000     7.370000000
O     3.303000000     2.732000000     4.955000000
H     2.841000000     2.796000000     4.119000000
H     4.093000000     3.259000000     4.833000000
O    -4.773000000     3.104000000    -1.628000000
H    -5.359000000     3.072000000    -2.385000000
H    -4.007000000     2.598000000    -1.898000000
O     2.273000000     3.953000000    -4.874000000
H     2.722000000     3.398000000    -5.513000000
H     1.454000000     4.198000000    -5.305000000
O     7.155000000    -1.754000000     0.376000000
H     6.280000000    -1.397000000     0.527000000
H     7.034000000    -2.703000000     0.400000000
O     2.295000000    -2.707000000    -1.986000000
H     2.017000000    -2.033000000    -2.606000000
H     2.180000000    -3.531000000    -2.460000000
O     3.625000000    -4.654000000     0.491000000
H     3.943000000    -4.748000000     1.388000000
H     2.870000000    -4.071000000     0.564000000
O     3.616000000     1.337000000    -5.928000000
H     4.091000000     1.710000000    -5.186000000
H     3.764000000     0.394000000    -5.858000000
O     3.409000000    -1.494000000    -5.349000000
H     3.572000000    -1.088000000    -4.497000000
H     2.476000000    -1.709000000    -5.337000000
O    -0.436000000    -5.244000000     5.021000000
H     0.163000000    -5.927000000     5.322000000
H     0.033000000    -4.811000000     4.308000000
O     0.880000000    -2.540000000    -5.316000000
H     0.490000000    -2.310000000    -6.160000000
H     0.414000000    -1.996000000    -4.681000000
O    -2.652000000    -2.134000000     3.195000000
H    -1.743000000    -1.888000000     3.366000000
H    -2.696000000    -3.062000000     3.425000000
O    -2.233000000    -2.111000000    -4.792000000
H    -1.504000000    -1.666000000    -4.358000000
H    -2.868000000    -1.417000000    -4.965000000
O     3.041000000     2.079000000    -2.903000000
H     2.546000000     2.841000000    -3.203000000
H     2.450000000     1.339000000    -3.041000000
O     1.050000000     0.676000000    -5.831000000
H     1.996000000     0.801000000    -5.913000000
H     0.930000000     0.334000000    -4.945000000
O    -4.769000000     0.028000000    -2.192000000
H    -4.284000000     0.593000000    -2.793000000
H    -4.529000000    -0.861000000    -2.453000000
O    -0.239000000     4.446000000     5.366000000
H    -0.503000000     3.607000000     4.989000000
H    -0.615000000     4.442000000     6.246000000
O     4.788000000    -2.183000000     2.762000000
H     4.405000000    -1.407000000     3.171000000
H     4.601000000    -2.078000000     1.829000000
O     5.801000000    -2.982000000    -2.787000000
H     5.518000000    -3.721000000    -3.326000000
H     5.508000000    -2.209000000    -3.270000000
