158
-3032.05356
C     0.320000000     1.230000000    -0.785000000
H     0.585000000     2.207000000    -1.182000000
C     0.650000000     0.947000000     0.591000000
H     1.152000000     1.691000000     1.203000000
C     0.245000000    -0.230000000     1.165000000
H     0.633000000    -0.537000000     2.209000000
C    -0.508000000    -1.150000000     0.405000000
H    -0.720000000    -2.136000000     0.810000000
C    -0.826000000    -0.862000000    -0.899000000
H    -1.322000000    -1.678000000    -1.418000000
C    -0.326000000     0.294000000    -1.553000000
C    -0.551000000     0.560000000    -3.004000000
O     0.282000000     1.139000000    -3.619000000
O    -1.594000000     0.387000000    -3.496000000
O     0.523000000    -3.314000000    -4.236000000
H     0.927000000    -2.477000000    -4.466000000
H     0.744000000    -3.895000000    -4.964000000
O    -0.697000000     3.195000000     5.637000000
H    -0.970000000     3.327000000     6.545000000
H     0.079000000     2.638000000     5.698000000
O     1.345000000    -2.660000000     4.279000000
H     0.791000000    -2.264000000     4.953000000
H     0.791000000    -3.327000000     3.875000000
O    -2.732000000     3.203000000     3.910000000
H    -2.726000000     2.299000000     3.595000000
H    -1.919000000     3.290000000     4.407000000
O     2.361000000     1.706000000    -8.619000000
H     2.126000000     1.751000000    -7.692000000
H     2.321000000     2.613000000    -8.921000000
O    -2.136000000    -3.592000000    -4.276000000
H    -1.215000000    -3.346000000    -4.186000000
H    -2.173000000    -4.080000000    -5.099000000
O    -4.484000000     0.624000000    -0.206000000
H    -4.171000000    -0.011000000    -0.851000000
H    -5.400000000     0.771000000    -0.441000000
O    -4.535000000     0.048000000     2.554000000
H    -3.800000000    -0.563000000     2.497000000
H    -4.730000000     0.274000000     1.644000000
O     4.044000000     4.880000000     4.502000000
H     3.881000000     4.351000000     3.721000000
H     4.873000000     5.322000000     4.324000000
O     4.207000000    -0.720000000    -0.555000000
H     5.137000000    -0.539000000    -0.686000000
H     3.767000000    -0.229000000    -1.249000000
O     3.802000000     3.739000000     1.273000000
H     3.435000000     3.240000000     2.002000000
H     4.333000000     3.104000000     0.792000000
O     0.021000000    -7.280000000     1.334000000
H     0.472000000    -7.237000000     0.491000000
H    -0.025000000    -6.371000000     1.628000000
O     4.304000000     2.961000000    -4.754000000
H     4.432000000     3.558000000    -5.491000000
H     3.809000000     3.473000000    -4.114000000
O    -3.266000000    -4.682000000     0.574000000
H    -3.666000000    -5.446000000     0.989000000
H    -2.785000000    -5.040000000    -0.173000000
O     2.917000000     0.980000000    -3.183000000
H     1.962000000     1.046000000    -3.174000000
H     3.219000000     1.842000000    -2.895000000
O    -3.930000000    -0.642000000    -2.918000000
H    -3.819000000    -1.377000000    -2.314000000
H    -3.052000000    -0.270000000    -3.005000000
O    -4.746000000    -3.073000000    -4.142000000
H    -3.852000000    -3.351000000    -3.938000000
H    -4.872000000    -2.276000000    -3.629000000
O    -1.121000000     3.202000000    -4.627000000
H    -0.658000000     2.391000000    -4.419000000
H    -2.048000000     2.981000000    -4.530000000
O    -3.176000000    -4.533000000     5.237000000
H    -4.070000000    -4.211000000     5.127000000
H    -2.742000000    -4.323000000     4.411000000
O    -2.729000000     0.673000000     7.605000000
H    -2.719000000    -0.119000000     7.068000000
H    -3.479000000     0.558000000     8.188000000
O    -2.462000000     1.812000000    -6.930000000
H    -3.166000000     2.047000000    -6.325000000
H    -2.243000000     0.908000000    -6.704000000
O    -2.371000000     1.833000000     1.154000000
H    -1.893000000     1.020000000     1.315000000
H    -3.061000000     1.588000000     0.539000000
O     3.291000000     2.139000000     3.236000000
H     2.632000000     1.968000000     3.910000000
H     3.756000000     1.308000000     3.140000000
O     4.598000000    -1.925000000     1.877000000
H     4.325000000    -1.574000000     1.029000000
H     5.424000000    -2.373000000     1.696000000
O    -3.151000000     4.625000000    -2.833000000
H    -2.195000000     4.579000000    -2.839000000
H    -3.351000000     5.382000000    -2.282000000
O     0.541000000    -4.176000000    -1.200000000
H     0.828000000    -3.462000000    -0.630000000
H     0.833000000    -3.917000000    -2.074000000
O     4.256000000    -2.685000000     6.157000000
H     3.763000000    -2.802000000     6.969000000
H     3.598000000    -2.414000000     5.516000000
O    -2.069000000    -4.911000000    -2.050000000
H    -1.185000000    -4.695000000    -1.752000000
H    -2.186000000    -4.393000000    -2.846000000
O    -0.460000000     4.529000000    -2.109000000
H    -0.045000000     5.356000000    -2.351000000
H    -0.481000000     4.024000000    -2.922000000
O    -0.498000000     4.713000000    -6.839000000
H    -1.347000000     5.148000000    -6.919000000
H    -0.603000000     4.120000000    -6.095000000
O     2.187000000     5.799000000    -0.189000000
H     2.417000000     5.063000000     0.378000000
H     3.002000000     6.015000000    -0.643000000
O    -4.104000000    -2.345000000    -0.766000000
H    -3.741000000    -3.004000000    -0.174000000
H    -5.047000000    -2.505000000    -0.753000000
O     3.638000000    -0.686000000     4.061000000
H     3.007000000    -1.401000000     3.982000000
H     4.288000000    -0.863000000     3.381000000
O     1.146000000    -0.911000000    -5.429000000
H     0.989000000    -0.128000000    -4.900000000
H     1.912000000    -0.692000000    -5.958000000
O     2.235000000    -2.691000000     0.559000000
H     2.281000000    -1.735000000     0.535000000
H     3.010000000    -2.956000000     1.055000000
O    -1.796000000    -4.148000000     3.042000000
H    -0.879000000    -4.421000000     3.054000000
H    -2.033000000    -4.146000000     2.115000000
O    -6.422000000     0.018000000    -3.508000000
H    -5.495000000    -0.207000000    -3.425000000
H    -6.658000000    -0.261000000    -4.392000000
O     0.833000000    -4.583000000     2.094000000
H     1.671000000    -4.915000000     2.415000000
H     1.070000000    -3.917000000     1.450000000
O     2.094000000     1.136000000     5.443000000
H     2.156000000     0.951000000     6.380000000
H     2.596000000     0.434000000     5.027000000
O    -1.710000000    -0.546000000    -5.976000000
H    -0.838000000    -0.941000000    -5.978000000
H    -1.953000000    -0.507000000    -5.051000000
O     3.791000000    -1.893000000    -3.611000000
H     3.854000000    -1.869000000    -4.566000000
H     3.271000000    -1.121000000    -3.386000000
O    -0.981000000     4.381000000     0.825000000
H    -1.210000000     3.452000000     0.789000000
H    -1.002000000     4.669000000    -0.087000000
O     2.187000000     3.817000000     6.235000000
H     2.141000000     2.861000000     6.208000000
H     2.808000000     4.046000000     5.544000000
O     1.861000000     2.192000000    -5.982000000
H     2.517000000     2.231000000    -5.286000000
H     1.110000000     1.757000000    -5.579000000
O    -3.773000000     2.070000000    -4.438000000
H    -3.091000000     1.503000000    -4.079000000
H    -4.268000000     2.365000000    -3.673000000
O    -0.219000000    -1.982000000     6.441000000
H     0.046000000    -1.319000000     7.079000000
H    -1.172000000    -2.027000000     6.525000000
O     2.730000000     4.337000000    -2.683000000
H     2.306000000     4.790000000    -3.412000000
H     2.512000000     4.864000000    -1.914000000
O    -0.905000000     6.210000000     3.030000000
H    -0.892000000     5.476000000     2.416000000
H    -1.791000000     6.567000000     2.958000000
