158
-3044.59736
C     0.903000000     0.826000000    -0.802000000
H     1.657000000     1.419000000    -1.312000000
C     0.983000000     0.680000000     0.564000000
H     1.722000000     1.158000000     1.203000000
C     0.042000000    -0.096000000     1.240000000
H     0.063000000    -0.022000000     2.311000000
C    -0.974000000    -0.719000000     0.535000000
H    -1.624000000    -1.390000000     1.090000000
C    -1.000000000    -0.632000000    -0.856000000
H    -1.717000000    -1.176000000    -1.465000000
C    -0.093000000     0.177000000    -1.559000000
C    -0.195000000     0.298000000    -3.084000000
O     0.586000000     1.009000000    -3.723000000
O    -0.960000000    -0.488000000    -3.629000000
O    -1.787000000     2.686000000     3.233000000
H    -2.672000000     2.400000000     3.458000000
H    -1.862000000     3.019000000     2.339000000
O    -0.656000000     4.967000000     4.882000000
H    -1.108000000     4.363000000     4.293000000
H     0.003000000     4.427000000     5.319000000
O    -2.633000000    -3.333000000    -4.258000000
H    -2.372000000    -2.432000000    -4.071000000
H    -3.183000000    -3.267000000    -5.039000000
O     1.598000000    -3.537000000    -2.874000000
H     1.946000000    -2.647000000    -2.928000000
H     1.205000000    -3.693000000    -3.733000000
O    -1.418000000     1.462000000     5.631000000
H    -1.115000000     1.653000000     4.744000000
H    -2.184000000     2.024000000     5.749000000
O    -3.479000000    -0.004000000    -3.929000000
H    -2.549000000    -0.204000000    -4.030000000
H    -3.505000000     0.691000000    -3.272000000
O    -0.111000000     4.913000000    -5.135000000
H    -0.647000000     4.847000000    -5.926000000
H     0.758000000     4.618000000    -5.409000000
O    -5.135000000    -3.675000000     1.417000000
H    -4.461000000    -4.355000000     1.399000000
H    -4.718000000    -2.936000000     1.858000000
O     4.335000000    -0.369000000    -5.253000000
H     3.629000000    -0.022000000    -5.797000000
H     4.994000000    -0.670000000    -5.879000000
O     2.584000000     3.813000000    -5.182000000
H     2.467000000     2.930000000    -4.833000000
H     3.368000000     3.754000000    -5.727000000
O     4.814000000     0.639000000     4.139000000
H     4.134000000     1.261000000     3.880000000
H     5.338000000     0.514000000     3.348000000
O    -3.364000000     2.052000000    -1.855000000
H    -3.070000000     2.630000000    -1.152000000
H    -3.352000000     2.602000000    -2.638000000
O     3.828000000    -1.989000000     1.465000000
H     3.310000000    -1.508000000     2.110000000
H     3.548000000    -1.634000000     0.621000000
O     2.891000000     4.211000000    -2.269000000
H     3.003000000     4.482000000    -3.181000000
H     1.966000000     3.977000000    -2.201000000
O     5.619000000     3.365000000    -2.748000000
H     4.702000000     3.566000000    -2.563000000
H     5.654000000     2.409000000    -2.782000000
O     0.189000000    -3.168000000     1.926000000
H     0.252000000    -3.869000000     1.277000000
H    -0.081000000    -2.400000000     1.423000000
O     2.493000000    -0.985000000    -3.272000000
H     1.656000000    -0.584000000    -3.503000000
H     3.123000000    -0.589000000    -3.874000000
O     0.060000000     3.802000000    -2.590000000
H    -0.151000000     4.181000000    -3.444000000
H     0.207000000     2.873000000    -2.770000000
O     2.352000000    -0.589000000     3.761000000
H     1.575000000    -0.096000000     4.025000000
H     3.062000000     0.053000000     3.785000000
O    -3.863000000     0.578000000     2.648000000
H    -3.666000000    -0.348000000     2.794000000
H    -3.702000000     0.712000000     1.714000000
O     2.822000000     2.473000000     4.014000000
H     2.205000000     2.732000000     4.698000000
H     3.552000000     3.086000000     4.105000000
O     3.835000000     4.506000000     0.203000000
H     4.035000000     3.583000000     0.361000000
H     3.397000000     4.514000000    -0.648000000
O     5.937000000     0.455000000    -3.003000000
H     6.760000000     0.383000000    -3.486000000
H     5.259000000     0.291000000    -3.659000000
O     0.269000000    -2.579000000    -5.056000000
H     0.502000000    -2.258000000    -5.927000000
H    -0.215000000    -1.855000000    -4.657000000
O    -4.767000000     0.293000000     0.102000000
H    -5.629000000     0.520000000    -0.247000000
H    -4.152000000     0.593000000    -0.567000000
O     1.001000000     0.121000000     6.229000000
H     0.352000000     0.731000000     5.879000000
H     1.577000000     0.665000000     6.765000000
O    -0.122000000    -3.286000000     4.534000000
H    -0.446000000    -2.414000000     4.760000000
H     0.066000000    -3.236000000     3.597000000
O    -1.762000000    -1.055000000    -8.610000000
H    -1.047000000    -0.631000000    -9.083000000
H    -1.513000000    -0.987000000    -7.688000000
O    -3.139000000    -5.867000000     1.540000000
H    -2.608000000    -5.620000000     2.298000000
H    -3.697000000    -6.576000000     1.860000000
O    -3.131000000    -2.941000000     3.861000000
H    -3.054000000    -3.868000000     4.086000000
H    -2.826000000    -2.479000000     4.641000000
O     1.629000000     5.086000000     1.990000000
H     1.633000000     4.309000000     2.549000000
H     2.409000000     4.991000000     1.443000000
O    -5.494000000     0.956000000    -5.410000000
H    -4.776000000     0.742000000    -4.815000000
H    -5.145000000     0.777000000    -6.283000000
O     0.185000000    -4.503000000    -0.473000000
H     0.280000000    -5.451000000    -0.381000000
H     0.678000000    -4.288000000    -1.265000000
O    -2.732000000     2.836000000    -4.821000000
H    -3.311000000     3.004000000    -5.565000000
H    -2.836000000     3.604000000    -4.259000000
O     1.808000000     3.721000000     6.258000000
H     1.290000000     3.525000000     7.038000000
H     2.675000000     3.946000000     6.596000000
O    -4.785000000    -2.050000000    -2.814000000
H    -4.575000000    -1.235000000    -3.271000000
H    -3.935000000    -2.413000000    -2.568000000
O    -2.141000000    -1.441000000     6.059000000
H    -2.528000000    -1.511000000     6.932000000
H    -1.951000000    -0.509000000     5.955000000
O     3.965000000    -4.555000000     1.026000000
H     3.758000000    -3.761000000     1.519000000
H     3.655000000    -4.374000000     0.138000000
O    -2.654000000    -4.658000000    -0.893000000
H    -1.767000000    -4.362000000    -0.688000000
H    -2.897000000    -5.217000000    -0.155000000
O    -1.774000000    -4.571000000     6.573000000
H    -1.747000000    -3.677000000     6.232000000
H    -1.278000000    -4.530000000     7.391000000
O     1.325000000    -2.678000000     7.019000000
H     1.071000000    -3.228000000     6.278000000
H     1.039000000    -1.798000000     6.773000000
O     1.396000000     3.371000000    -7.873000000
H     2.086000000     3.140000000    -7.251000000
H     1.769000000     4.084000000    -8.391000000
O    -1.253000000     3.038000000     0.354000000
H    -0.748000000     3.717000000    -0.092000000
H    -0.708000000     2.254000000     0.292000000
O     4.032000000     1.812000000     0.730000000
H     4.725000000     1.589000000     1.352000000
H     3.879000000     1.004000000     0.241000000
O    -1.439000000     0.598000000    -6.153000000
H    -1.014000000     0.184000000    -5.401000000
H    -1.685000000     1.468000000    -5.839000000
O     1.935000000     1.070000000    -5.971000000
H     1.446000000     0.878000000    -6.771000000
H     1.271000000     1.087000000    -5.282000000
O     3.190000000    -3.259000000     4.450000000
H     2.417000000    -3.483000000     3.933000000
H     3.011000000    -2.379000000     4.781000000
O     3.797000000    -0.711000000    -1.112000000
H     3.192000000    -0.955000000    -1.812000000
H     4.663000000    -0.758000000    -1.517000000
