158
-3044.81279
C     1.163000000     0.020000000    -0.940000000
H     2.077000000     0.165000000    -1.511000000
C     1.184000000     0.229000000     0.459000000
H     2.098000000     0.302000000     1.043000000
C     0.020000000     0.203000000     1.217000000
H     0.185000000     0.240000000     2.281000000
C    -1.171000000     0.035000000     0.593000000
H    -2.136000000     0.000000000     1.092000000
C    -1.208000000    -0.238000000    -0.777000000
H    -2.167000000    -0.506000000    -1.213000000
C    -0.062000000    -0.279000000    -1.575000000
C    -0.174000000    -0.430000000    -3.068000000
O     0.754000000    -0.127000000    -3.774000000
O    -1.273000000    -0.618000000    -3.627000000
O     1.254000000    -3.415000000     7.045000000
H     0.560000000    -3.155000000     6.440000000
H     2.053000000    -3.393000000     6.518000000
O    -3.924000000     3.841000000     2.597000000
H    -4.834000000     4.115000000     2.484000000
H    -3.767000000     3.229000000     1.878000000
O     5.380000000    -2.396000000    -0.673000000
H     5.312000000    -2.481000000    -1.624000000
H     4.474000000    -2.319000000    -0.374000000
O     0.273000000     3.372000000     3.771000000
H     0.828000000     4.151000000     3.744000000
H     0.501000000     2.943000000     4.596000000
O    -3.527000000    -0.595000000    -7.634000000
H    -2.661000000    -0.807000000    -7.286000000
H    -3.837000000    -1.413000000    -8.022000000
O     4.882000000    -1.817000000    -6.366000000
H     4.490000000    -1.059000000    -5.931000000
H     4.418000000    -1.882000000    -7.200000000
O    -2.823000000     2.047000000     4.370000000
H    -1.880000000     2.095000000     4.216000000
H    -3.196000000     2.707000000     3.787000000
O    -3.570000000    -2.113000000    -3.398000000
H    -2.886000000    -1.546000000    -3.753000000
H    -4.062000000    -1.551000000    -2.800000000
O    -2.024000000    -3.207000000     2.343000000
H    -2.571000000    -2.450000000     2.550000000
H    -2.646000000    -3.903000000     2.132000000
O     1.276000000     3.259000000    -7.138000000
H     1.015000000     2.344000000    -7.039000000
H     2.219000000     3.223000000    -7.303000000
O     3.376000000     0.731000000     4.018000000
H     3.660000000     1.117000000     3.189000000
H     3.230000000     1.481000000     4.594000000
O    -4.872000000     2.144000000    -6.025000000
H    -5.339000000     2.464000000    -5.253000000
H    -4.075000000     1.746000000    -5.673000000
O    -2.479000000     2.231000000    -2.485000000
H    -1.924000000     1.491000000    -2.238000000
H    -2.577000000     2.149000000    -3.434000000
O     1.472000000    -3.126000000    -2.901000000
H     0.921000000    -2.804000000    -3.614000000
H     1.170000000    -4.021000000    -2.750000000
O     1.738000000     2.453000000    -2.947000000
H     1.382000000     1.958000000    -2.209000000
H     1.307000000     2.081000000    -3.716000000
O     5.344000000     2.007000000    -1.007000000
H     5.938000000     1.482000000    -0.472000000
H     5.637000000     1.860000000    -1.907000000
O    -0.087000000    -5.172000000    -1.814000000
H     0.356000000    -5.850000000    -1.304000000
H    -0.170000000    -4.434000000    -1.209000000
O     3.609000000    -0.010000000    -4.463000000
H     3.233000000     0.448000000    -5.214000000
H     2.855000000    -0.232000000    -3.916000000
O    -0.191000000    -3.371000000     0.257000000
H    -0.317000000    -2.532000000    -0.185000000
H    -0.711000000    -3.301000000     1.058000000
O    -3.969000000     2.959000000    -0.076000000
H    -3.440000000     2.809000000    -0.860000000
H    -4.549000000     2.199000000    -0.030000000
O     0.967000000     2.317000000     6.216000000
H     0.878000000     2.683000000     7.096000000
H     1.891000000     2.442000000     5.997000000
O    -2.126000000     0.730000000     6.985000000
H    -2.480000000     1.417000000     6.421000000
H    -2.851000000     0.499000000     7.566000000
O    -1.036000000    -3.541000000    -3.950000000
H    -0.800000000    -4.342000000    -3.482000000
H    -1.944000000    -3.375000000    -3.700000000
O     2.063000000     5.084000000    -0.432000000
H     1.553000000     4.473000000     0.099000000
H     2.114000000     4.668000000    -1.293000000
O     5.638000000     1.604000000    -3.626000000
H     6.376000000     1.229000000    -4.106000000
H     4.886000000     1.075000000    -3.892000000
O    -1.443000000    -2.261000000    -6.697000000
H    -1.001000000    -3.105000000    -6.784000000
H    -1.094000000    -1.890000000    -5.886000000
O     3.558000000     1.045000000    -6.996000000
H     3.759000000     0.816000000    -7.903000000
H     3.955000000     1.907000000    -6.873000000
O    -6.023000000     0.945000000    -0.323000000
H    -5.898000000     0.307000000    -1.026000000
H    -6.965000000     1.114000000    -0.318000000
O    -0.174000000    -0.830000000     4.725000000
H     0.556000000    -0.237000000     4.546000000
H    -0.493000000    -0.565000000     5.588000000
O     3.492000000     2.817000000     5.515000000
H     3.993000000     3.011000000     6.307000000
H     3.976000000     3.250000000     4.812000000
O    -5.533000000    -2.130000000     2.378000000
H    -4.804000000    -1.860000000     2.937000000
H    -6.166000000    -2.518000000     2.982000000
O     0.153000000     3.463000000     0.738000000
H     0.034000000     3.271000000     1.669000000
H    -0.389000000     2.816000000     0.289000000
O     3.130000000    -1.898000000     3.368000000
H     2.873000000    -1.036000000     3.696000000
H     2.834000000    -1.906000000     2.458000000
O     2.785000000     4.982000000    -3.563000000
H     2.363000000     4.134000000    -3.423000000
H     3.657000000     4.882000000    -3.180000000
O    -3.532000000    -1.173000000     4.080000000
H    -3.820000000    -1.266000000     4.988000000
H    -3.191000000    -0.280000000     4.027000000
O     2.731000000    -2.611000000     0.278000000
H     1.845000000    -2.542000000    -0.078000000
H     2.883000000    -3.553000000     0.363000000
O    -5.198000000    -3.703000000     0.013000000
H    -5.080000000    -3.246000000     0.846000000
H    -5.989000000    -3.315000000    -0.362000000
O    -0.811000000    -3.374000000     4.849000000
H    -0.780000000    -2.444000000     4.628000000
H    -0.648000000    -3.823000000     4.020000000
O     0.286000000    -0.277000000     7.682000000
H    -0.289000000     0.335000000     7.222000000
H    -0.296000000    -0.980000000     7.972000000
O    -2.756000000    -5.480000000    -5.363000000
H    -1.863000000    -5.735000000    -5.593000000
H    -2.749000000    -4.523000000    -5.399000000
O    -5.563000000     1.030000000     4.317000000
H    -4.866000000     1.666000000     4.159000000
H    -5.920000000     0.845000000     3.448000000
O     4.333000000     1.979000000     1.880000000
H     3.752000000     1.965000000     1.119000000
H     5.149000000     1.589000000     1.566000000
O    -2.441000000     1.366000000    -5.001000000
H    -1.921000000     1.434000000    -5.802000000
H    -2.189000000     0.523000000    -4.623000000
O     4.398000000    -2.471000000    -3.316000000
H     4.405000000    -1.603000000    -3.720000000
H     3.528000000    -2.545000000    -2.924000000
O     0.339000000     0.521000000    -6.412000000
H     0.951000000    -0.046000000    -6.880000000
H     0.264000000     0.128000000    -5.542000000
O    -5.203000000     0.205000000    -2.965000000
H    -5.431000000     0.258000000    -3.893000000
H    -5.081000000     1.116000000    -2.696000000
O     2.298000000    -4.458000000     4.370000000
H     1.500000000    -4.725000000     3.914000000
H     2.503000000    -3.595000000     4.010000000
O     6.547000000    -0.021000000     0.554000000
H     7.152000000    -0.130000000     1.287000000
H     6.346000000    -0.914000000     0.274000000
