158
-3030.74397
C     1.285000000     0.421000000    -0.369000000
H     2.307000000     0.713000000    -0.597000000
C     0.983000000    -0.041000000     0.865000000
H     1.779000000    -0.283000000     1.565000000
C    -0.268000000    -0.504000000     1.116000000
H    -0.627000000    -0.775000000     2.070000000
C    -1.283000000    -0.216000000     0.164000000
H    -2.322000000    -0.508000000     0.299000000
C    -0.951000000     0.326000000    -1.103000000
H    -1.765000000     0.431000000    -1.815000000
C     0.391000000     0.589000000    -1.393000000
C     0.778000000     1.114000000    -2.727000000
O     1.911000000     1.092000000    -3.089000000
O    -0.071000000     1.593000000    -3.475000000
O    -4.098000000     1.017000000     1.139000000
H    -4.363000000     0.879000000     0.229000000
H    -3.833000000     1.936000000     1.175000000
O    -2.995000000    -3.421000000     2.358000000
H    -2.143000000    -3.008000000     2.499000000
H    -2.879000000    -3.943000000     1.564000000
O     2.138000000     4.580000000     3.652000000
H     2.171000000     3.806000000     3.089000000
H     1.821000000     5.279000000     3.080000000
O     0.347000000     1.991000000     4.724000000
H    -0.547000000     1.779000000     4.994000000
H     0.238000000     2.551000000     3.955000000
O    -5.632000000    -0.552000000    -1.002000000
H    -6.040000000    -1.365000000    -0.704000000
H    -5.700000000    -0.585000000    -1.956000000
O     0.992000000     1.694000000    -8.433000000
H     1.352000000     1.424000000    -7.589000000
H     1.181000000     0.962000000    -9.020000000
O    -0.082000000     3.488000000    -5.056000000
H     0.020000000     2.770000000    -4.432000000
H     0.107000000     4.276000000    -4.547000000
O    -2.683000000     2.013000000     4.491000000
H    -3.482000000     2.513000000     4.660000000
H    -2.991000000     1.194000000     4.103000000
O    -0.062000000    -2.357000000     4.165000000
H     0.695000000    -1.796000000     4.334000000
H    -0.818000000    -1.805000000     4.361000000
O    -0.486000000     2.818000000     2.250000000
H    -1.232000000     3.284000000     2.627000000
H    -0.873000000     2.232000000     1.600000000
O     0.420000000     5.931000000    -3.296000000
H    -0.505000000     5.689000000    -3.330000000
H     0.721000000     5.607000000    -2.447000000
O     1.140000000    -2.445000000    -1.634000000
H     0.269000000    -2.592000000    -1.266000000
H     1.588000000    -1.905000000    -0.982000000
O    -1.250000000     5.097000000    -1.000000000
H    -0.298000000     5.000000000    -0.986000000
H    -1.409000000     5.958000000    -0.613000000
O    -3.563000000    -0.514000000     3.310000000
H    -3.839000000    -0.021000000     2.537000000
H    -3.259000000    -1.353000000     2.962000000
O     3.372000000     5.949000000    -4.535000000
H     3.127000000     5.164000000    -4.045000000
H     2.547000000     6.274000000    -4.895000000
O    -1.405000000    -3.277000000    -2.584000000
H    -2.046000000    -2.578000000    -2.449000000
H    -1.171000000    -3.212000000    -3.510000000
O     3.999000000    -0.659000000    -2.990000000
H     3.263000000    -0.046000000    -2.967000000
H     4.627000000    -0.301000000    -2.363000000
O     1.633000000     5.122000000    -1.101000000
H     2.066000000     5.711000000    -0.484000000
H     2.337000000     4.568000000    -1.438000000
O    -0.186000000    -0.813000000    -6.592000000
H     0.558000000    -1.306000000    -6.938000000
H    -0.039000000    -0.791000000    -5.646000000
O    -2.063000000    -0.693000000     5.569000000
H    -2.141000000     0.162000000     5.992000000
H    -2.738000000    -0.688000000     4.891000000
O    -2.994000000     3.478000000     0.190000000
H    -2.355000000     4.011000000    -0.284000000
H    -3.823000000     3.643000000    -0.258000000
O    -4.540000000    -0.547000000    -6.108000000
H    -3.918000000    -0.164000000    -5.490000000
H    -4.802000000     0.184000000    -6.668000000
O    -0.081000000     5.311000000    -7.520000000
H    -0.138000000     4.669000000    -6.812000000
H     0.549000000     4.933000000    -8.135000000
O    -0.745000000    -4.221000000     0.548000000
H    -0.572000000    -3.999000000    -0.367000000
H    -0.095000000    -3.722000000     1.043000000
O     5.501000000     3.178000000     0.290000000
H     5.757000000     3.920000000     0.839000000
H     5.731000000     3.447000000    -0.599000000
O     5.372000000     0.889000000    -1.282000000
H     5.690000000     1.483000000    -1.962000000
H     5.290000000     1.439000000    -0.503000000
O     1.451000000    -4.081000000     2.535000000
H     0.867000000    -3.681000000     3.179000000
H     1.936000000    -4.742000000     3.029000000
O     5.635000000    -2.200000000     1.771000000
H     4.868000000    -2.231000000     2.342000000
H     5.350000000    -1.688000000     1.014000000
O    -2.538000000    -3.145000000     6.590000000
H    -1.940000000    -2.582000000     6.098000000
H    -3.410000000    -2.887000000     6.291000000
O     4.705000000     1.076000000     3.896000000
H     4.570000000     1.817000000     3.305000000
H     3.833000000     0.883000000     4.241000000
O    -2.781000000     3.502000000    -6.710000000
H    -2.578000000     3.310000000    -5.795000000
H    -2.694000000     2.660000000    -7.157000000
O     5.001000000     1.937000000    -4.356000000
H     4.530000000     1.106000000    -4.414000000
H     5.824000000     1.779000000    -4.818000000
O     1.181000000    -1.839000000    -4.293000000
H     1.768000000    -1.093000000    -4.171000000
H     1.022000000    -2.166000000    -3.407000000
O    -2.511000000     5.253000000    -3.503000000
H    -3.386000000     4.899000000    -3.660000000
H    -2.221000000     4.828000000    -2.696000000
O    -2.494000000     0.871000000    -4.817000000
H    -2.270000000     1.119000000    -5.714000000
H    -1.840000000     1.314000000    -4.275000000
O    -1.648000000     1.101000000    -7.677000000
H    -0.828000000     1.446000000    -8.030000000
H    -1.433000000     0.210000000    -7.399000000
O    -0.993000000    -6.444000000     2.630000000
H    -0.830000000    -5.643000000     2.133000000
H    -1.345000000    -7.058000000     1.986000000
O     4.032000000     0.485000000    -7.521000000
H     4.201000000    -0.432000000    -7.307000000
H     3.392000000     0.769000000    -6.868000000
O     2.172000000     2.689000000     1.834000000
H     2.574000000     2.769000000     0.969000000
H     1.246000000     2.527000000     1.654000000
O    -5.727000000    -3.700000000     2.227000000
H    -5.840000000    -4.149000000     3.065000000
H    -4.780000000    -3.692000000     2.085000000
O    -3.203000000    -1.242000000    -3.363000000
H    -3.011000000    -0.485000000    -3.916000000
H    -4.000000000    -0.999000000    -2.893000000
O     3.394000000     3.494000000    -2.631000000
H     4.212000000     3.279000000    -3.080000000
H     2.864000000     2.701000000    -2.706000000
O     2.298000000     1.663000000    -5.624000000
H     1.963000000     2.544000000    -5.458000000
H     2.136000000     1.188000000    -4.809000000
O    -6.900000000     0.726000000     1.556000000
H    -6.346000000     0.099000000     1.090000000
H    -7.289000000     1.262000000     0.866000000
O     2.674000000    -5.274000000     5.230000000
H     3.042000000    -4.399000000     5.104000000
H     2.380000000    -5.281000000     6.141000000
O     1.730000000    -0.585000000     5.221000000
H     1.673000000    -0.584000000     6.176000000
H     1.371000000     0.262000000     4.958000000
O     3.747000000    -2.261000000     3.478000000
H     3.228000000    -1.788000000     4.128000000
H     3.115000000    -2.825000000     3.031000000
O     4.188000000    -2.601000000    -0.754000000
H     5.076000000    -2.839000000    -1.020000000
H     3.688000000    -2.592000000    -1.570000000
