158
-3064.29211
C     1.389000000    -0.187000000    -0.449000000
H     2.449000000    -0.104000000    -0.672000000
C     0.862000000    -0.435000000     0.833000000
H     1.501000000    -0.556000000     1.704000000
C    -0.457000000    -0.239000000     1.099000000
H    -0.884000000    -0.337000000     2.092000000
C    -1.335000000     0.044000000     0.054000000
H    -2.370000000     0.090000000     0.382000000
C    -0.843000000     0.308000000    -1.213000000
H    -1.528000000     0.614000000    -1.999000000
C     0.532000000     0.182000000    -1.441000000
C     1.035000000     0.430000000    -2.872000000
O     2.250000000     0.576000000    -3.028000000
O     0.239000000     0.587000000    -3.821000000
O    -3.805000000     2.089000000    -0.369000000
H    -4.276000000     1.309000000    -0.661000000
H    -3.641000000     2.585000000    -1.171000000
O    -0.635000000    -3.302000000     2.736000000
H    -0.836000000    -2.472000000     3.168000000
H    -0.417000000    -3.058000000     1.837000000
O     6.740000000    -0.921000000     0.148000000
H     6.826000000    -0.139000000    -0.398000000
H     6.231000000    -1.531000000    -0.387000000
O    -1.510000000     3.522000000     3.941000000
H    -2.386000000     3.833000000     3.716000000
H    -1.215000000     3.051000000     3.161000000
O    -4.982000000    -0.002000000    -1.621000000
H    -5.092000000    -0.755000000    -1.040000000
H    -5.520000000    -0.209000000    -2.385000000
O    -3.928000000    -2.334000000     0.210000000
H    -3.082000000    -2.612000000    -0.143000000
H    -3.951000000    -2.703000000     1.093000000
O    -0.466000000     2.518000000    -5.451000000
H    -0.288000000     1.706000000    -4.977000000
H    -0.568000000     3.178000000    -4.765000000
O    -5.051000000     3.010000000     5.685000000
H    -4.907000000     2.175000000     5.241000000
H    -6.000000000     3.131000000     5.665000000
O    -3.821000000     2.752000000     2.434000000
H    -4.073000000     1.844000000     2.599000000
H    -3.507000000     2.753000000     1.529000000
O    -0.860000000    -1.449000000     4.851000000
H    -0.045000000    -1.034000000     4.567000000
H    -1.141000000    -0.932000000     5.606000000
O    -0.358000000     2.737000000     1.511000000
H    -0.730000000     3.377000000     0.904000000
H    -0.407000000     1.905000000     1.042000000
O     2.779000000    -3.288000000    -1.402000000
H     3.066000000    -3.583000000    -2.266000000
H     1.894000000    -2.952000000    -1.545000000
O    -0.211000000     2.352000000     6.046000000
H    -0.791000000     2.597000000     5.324000000
H    -0.078000000     3.166000000     6.532000000
O    -4.594000000     0.038000000     2.587000000
H    -5.330000000     0.286000000     2.028000000
H    -4.269000000    -0.779000000     2.208000000
O     5.756000000     2.641000000    -3.671000000
H     6.289000000     2.405000000    -4.430000000
H     5.704000000     3.596000000    -3.702000000
O    -1.888000000    -2.616000000    -2.122000000
H    -2.129000000    -1.888000000    -2.696000000
H    -1.169000000    -3.053000000    -2.579000000
O     4.609000000     0.215000000    -3.645000000
H     3.699000000     0.328000000    -3.368000000
H     4.893000000     1.093000000    -3.897000000
O    -1.345000000    -0.079000000    -6.781000000
H    -2.174000000     0.074000000    -7.236000000
H    -0.809000000    -0.556000000    -7.415000000
O    -1.390000000     0.085000000     7.185000000
H    -1.218000000    -0.046000000     8.118000000
H    -0.986000000     0.930000000     6.985000000
O    -3.564000000     3.679000000    -2.800000000
H    -2.626000000     3.850000000    -2.882000000
H    -3.802000000     3.253000000    -3.623000000
O    -0.006000000    -2.911000000    -0.110000000
H    -0.694000000    -3.089000000    -0.751000000
H     0.025000000    -1.956000000    -0.051000000
O     3.684000000     3.174000000    -0.321000000
H     4.500000000     2.683000000    -0.417000000
H     3.273000000     3.127000000    -1.184000000
O     0.280000000    -3.134000000    -3.709000000
H     0.614000000    -2.546000000    -4.387000000
H     0.640000000    -3.991000000    -3.937000000
O     6.108000000     1.687000000    -0.955000000
H     6.025000000     1.707000000    -1.908000000
H     6.873000000     2.232000000    -0.769000000
O     4.310000000    -3.747000000     0.841000000
H     3.620000000    -3.592000000     0.195000000
H     4.011000000    -3.287000000     1.625000000
O     5.103000000     0.839000000     2.107000000
H     5.456000000     0.192000000     2.718000000
H     5.447000000     0.574000000     1.254000000
O    -1.636000000    -2.690000000    -6.206000000
H    -1.275000000    -2.625000000    -5.322000000
H    -1.716000000    -1.783000000    -6.499000000
O     3.291000000     1.848000000     3.971000000
H     2.942000000     2.618000000     3.522000000
H     3.953000000     1.502000000     3.372000000
O    -5.153000000     0.329000000     5.211000000
H    -6.052000000     0.292000000     4.883000000
H    -4.617000000     0.039000000     4.473000000
O     1.244000000    -1.206000000    -5.495000000
H     1.548000000    -1.014000000    -6.382000000
H     0.970000000    -0.358000000    -5.147000000
O    -0.788000000     4.912000000    -3.356000000
H     0.083000000     5.196000000    -3.080000000
H    -1.177000000     5.689000000    -3.758000000
O    -0.770000000    -3.626000000     6.833000000
H    -0.016000000    -3.579000000     7.422000000
H    -0.599000000    -2.955000000     6.173000000
O    -3.151000000     2.801000000    -5.324000000
H    -3.480000000     3.240000000    -6.108000000
H    -2.201000000     2.784000000    -5.440000000
O    -0.722000000     2.711000000    -8.517000000
H    -0.871000000     1.860000000    -8.929000000
H    -0.735000000     2.528000000    -7.578000000
O     7.175000000    -1.481000000    -4.533000000
H     6.398000000    -1.037000000    -4.193000000
H     7.004000000    -2.411000000    -4.384000000
O     1.248000000    -5.084000000     1.120000000
H     0.877000000    -5.429000000     1.933000000
H     0.630000000    -4.408000000     0.843000000
O     4.994000000     0.344000000    -7.377000000
H     5.101000000    -0.534000000    -7.010000000
H     4.068000000     0.547000000    -7.245000000
O     3.926000000    -2.301000000    -5.419000000
H     4.050000000    -1.892000000    -4.563000000
H     3.025000000    -2.083000000    -5.660000000
O     0.496000000    -5.354000000     4.618000000
H    -0.177000000    -5.490000000     5.285000000
H     0.030000000    -4.949000000     3.887000000
O     2.353000000     3.459000000     2.050000000
H     2.664000000     3.456000000     1.145000000
H     1.473000000     3.087000000     2.002000000
O    -3.540000000    -3.289000000     2.742000000
H    -4.007000000    -3.671000000     3.486000000
H    -2.643000000    -3.610000000     2.831000000
O    -2.276000000    -0.599000000    -3.981000000
H    -1.398000000    -0.219000000    -3.948000000
H    -2.614000000    -0.348000000    -4.841000000
O     2.902000000     3.112000000    -2.943000000
H     2.895000000     3.311000000    -3.880000000
H     2.709000000     2.176000000    -2.895000000
O     2.511000000     1.426000000    -6.117000000
H     2.202000000     2.267000000    -5.779000000
H     2.735000000     0.922000000    -5.335000000
O    -6.791000000     0.691000000     0.851000000
H    -7.519000000     0.510000000     0.257000000
H    -6.665000000     1.638000000     0.795000000
O     3.438000000    -2.501000000     3.145000000
H     3.176000000    -1.594000000     3.296000000
H     4.026000000    -2.705000000     3.872000000
O     1.876000000    -0.383000000     4.573000000
H     2.165000000    -0.629000000     5.452000000
H     2.172000000     0.521000000     4.467000000
O     5.473000000    -1.912000000    -1.988000000
H     5.136000000    -1.120000000    -2.407000000
H     4.691000000    -2.428000000    -1.789000000
