158
-3054.81412
C     1.412000000     0.162000000    -0.481000000
H     2.458000000     0.324000000    -0.731000000
C     1.023000000    -0.086000000     0.851000000
H     1.752000000    -0.219000000     1.647000000
C    -0.326000000    -0.242000000     1.185000000
H    -0.621000000    -0.250000000     2.278000000
C    -1.258000000    -0.229000000     0.147000000
H    -2.326000000    -0.357000000     0.306000000
C    -0.910000000     0.014000000    -1.203000000
H    -1.687000000     0.036000000    -1.963000000
C     0.434000000     0.364000000    -1.469000000
C     0.819000000     0.716000000    -2.867000000
O     1.937000000     0.389000000    -3.276000000
O     0.036000000     1.270000000    -3.643000000
O    -3.494000000    -5.190000000    -1.144000000
H    -3.441000000    -6.006000000    -0.647000000
H    -3.450000000    -4.502000000    -0.480000000
O     2.000000000     2.896000000     4.834000000
H     2.246000000     2.622000000     3.951000000
H     2.808000000     3.246000000     5.211000000
O    -1.579000000    -1.615000000    -6.663000000
H    -2.335000000    -1.452000000    -6.100000000
H    -1.450000000    -2.563000000    -6.622000000
O     5.194000000    -1.156000000    -4.703000000
H     4.552000000    -1.506000000    -4.086000000
H     4.822000000    -1.340000000    -5.565000000
O    -0.262000000     3.279000000     3.049000000
H    -0.662000000     4.140000000     3.174000000
H     0.355000000     3.194000000     3.775000000
O    -2.603000000    -2.494000000    -2.742000000
H    -2.961000000    -2.608000000    -1.862000000
H    -2.836000000    -1.597000000    -2.981000000
O    -6.766000000    -0.719000000     1.952000000
H    -5.978000000    -0.373000000     2.370000000
H    -7.467000000    -0.546000000     2.581000000
O    -1.550000000     3.420000000    -6.413000000
H    -0.696000000     3.031000000    -6.228000000
H    -1.994000000     2.774000000    -6.962000000
O    -1.583000000    -4.869000000     1.537000000
H    -2.101000000    -4.088000000     1.727000000
H    -1.915000000    -5.531000000     2.144000000
O     2.439000000     1.925000000    -6.761000000
H     1.975000000     1.213000000    -6.322000000
H     2.641000000     1.580000000    -7.630000000
O     5.596000000    -1.765000000     4.254000000
H     5.558000000    -0.886000000     3.877000000
H     5.874000000    -1.625000000     5.160000000
O    -1.082000000    -5.019000000    -2.460000000
H    -0.914000000    -4.115000000    -2.727000000
H    -2.009000000    -5.030000000    -2.223000000
O     0.483000000     4.644000000    -3.045000000
H     0.468000000     3.870000000    -3.607000000
H     1.243000000     4.514000000    -2.477000000
O     3.588000000    -1.191000000    -2.173000000
H     2.977000000    -0.589000000    -2.597000000
H     3.161000000    -2.045000000    -2.229000000
O     2.990000000     4.143000000    -1.845000000
H     2.991000000     3.496000000    -2.551000000
H     3.909000000     4.220000000    -1.589000000
O     6.457000000     2.599000000    -0.618000000
H     6.689000000     1.861000000    -0.053000000
H     6.224000000     2.197000000    -1.454000000
O     2.292000000    -3.739000000    -2.507000000
H     2.801000000    -3.960000000    -3.287000000
H     2.542000000    -4.401000000    -1.862000000
O     3.307000000     2.622000000    -4.100000000
H     3.426000000     2.579000000    -5.049000000
H     2.909000000     1.782000000    -3.870000000
O     0.571000000    -4.164000000     0.008000000
H    -0.308000000    -4.447000000     0.262000000
H     0.682000000    -4.497000000    -0.882000000
O     2.955000000     0.347000000     6.145000000
H     2.414000000     0.859000000     6.747000000
H     3.117000000     0.936000000     5.408000000
O     0.282000000     1.543000000     7.265000000
H    -0.278000000     2.059000000     6.684000000
H    -0.327000000     0.992000000     7.757000000
O     0.285000000    -2.604000000    -4.138000000
H    -0.445000000    -2.109000000    -3.766000000
H     0.832000000    -2.826000000    -3.385000000
O     1.579000000     5.240000000     0.138000000
H     1.201000000     4.382000000     0.329000000
H     2.276000000     5.060000000    -0.493000000
O     5.463000000     1.260000000    -2.782000000
H     5.523000000     0.379000000    -3.153000000
H     4.778000000     1.689000000    -3.294000000
O     1.858000000    -2.805000000    -6.510000000
H     2.086000000    -3.735000000    -6.501000000
H     1.302000000    -2.688000000    -5.741000000
O     0.235000000    -5.323000000     3.633000000
H    -0.275000000    -4.954000000     2.911000000
H     0.360000000    -4.590000000     4.236000000
O     3.913000000    -1.002000000    -7.438000000
H     3.056000000    -1.422000000    -7.367000000
H     3.719000000    -0.107000000    -7.718000000
O    -2.310000000     1.427000000     3.868000000
H    -2.429000000     2.091000000     4.548000000
H    -1.884000000     1.894000000     3.149000000
O    -3.856000000     4.033000000     0.292000000
H    -4.204000000     3.400000000    -0.337000000
H    -4.452000000     3.981000000     1.039000000
O     1.064000000    -1.674000000     5.517000000
H     1.689000000    -1.941000000     4.844000000
H     1.528000000    -1.008000000     6.025000000
O    -3.235000000    -2.831000000     2.486000000
H    -2.776000000    -2.272000000     3.114000000
H    -3.869000000    -3.315000000     3.015000000
O    -0.379000000     3.121000000    -0.075000000
H    -0.859000000     2.309000000    -0.238000000
H    -0.566000000     3.331000000     0.840000000
O     2.896000000    -2.830000000     3.961000000
H     3.714000000    -2.366000000     4.142000000
H     2.833000000    -2.842000000     3.006000000
O     2.390000000     4.665000000    -6.373000000
H     1.994000000     4.688000000    -5.502000000
H     2.379000000     3.739000000    -6.616000000
O    -3.498000000    -0.146000000    -4.475000000
H    -3.017000000     0.579000000    -4.077000000
H    -3.876000000     0.226000000    -5.272000000
O    -2.433000000    -2.344000000     6.736000000
H    -2.497000000    -3.299000000     6.712000000
H    -2.112000000    -2.104000000     5.866000000
O    -4.432000000    -4.069000000    -3.784000000
H    -3.893000000    -3.440000000    -3.304000000
H    -3.979000000    -4.185000000    -4.619000000
O    -5.078000000    -0.039000000     6.086000000
H    -4.939000000    -0.088000000     5.141000000
H    -4.559000000    -0.761000000     6.442000000
O    -1.452000000    -1.452000000     4.316000000
H    -0.499000000    -1.446000000     4.409000000
H    -1.682000000    -0.539000000     4.144000000
O     2.878000000    -2.767000000     1.199000000
H     2.053000000    -3.164000000     0.920000000
H     2.958000000    -1.978000000     0.663000000
O    -3.751000000    -2.498000000    -0.267000000
H    -3.419000000    -2.517000000     0.630000000
H    -4.702000000    -2.547000000    -0.172000000
O    -4.684000000     0.426000000     3.354000000
H    -3.757000000     0.626000000     3.482000000
H    -5.079000000     1.264000000     3.114000000
O     3.211000000     1.886000000     2.268000000
H     2.474000000     2.152000000     1.718000000
H     3.892000000     2.533000000     2.085000000
O    -2.332000000     2.223000000    -3.826000000
H    -2.500000000     2.960000000    -4.414000000
H    -1.398000000     2.044000000    -3.927000000
O     5.709000000    -1.588000000    -0.546000000
H     5.077000000    -1.241000000    -1.175000000
H     5.633000000    -2.538000000    -0.628000000
O     0.570000000     0.023000000    -6.059000000
H    -0.260000000    -0.397000000    -6.283000000
H     0.624000000    -0.047000000    -5.106000000
O    -4.611000000     2.354000000    -2.143000000
H    -3.912000000     1.852000000    -2.561000000
H    -4.592000000     3.204000000    -2.583000000
O     7.491000000     0.466000000     0.589000000
H     8.250000000     0.005000000     0.946000000
H     6.839000000    -0.220000000     0.447000000
