158
-3031.92884
C    -0.024000000     0.249000000    -1.506000000
H    -0.198000000     0.329000000    -2.576000000
C    -0.175000000    -1.006000000    -0.908000000
H    -0.434000000    -1.848000000    -1.544000000
C    -0.093000000    -1.129000000     0.514000000
H    -0.278000000    -2.101000000     1.026000000
C     0.085000000    -0.026000000     1.279000000
H     0.110000000    -0.151000000     2.358000000
C     0.328000000     1.221000000     0.756000000
H     0.535000000     2.090000000     1.375000000
C     0.317000000     1.362000000    -0.672000000
C     0.422000000     2.747000000    -1.224000000
O    -0.141000000     3.135000000    -2.247000000
O     1.048000000     3.580000000    -0.609000000
O    -1.753000000    -0.262000000     6.856000000
H    -1.171000000    -0.896000000     6.437000000
H    -2.602000000    -0.702000000     6.892000000
O     2.839000000     4.003000000    -2.696000000
H     3.519000000     3.572000000    -2.177000000
H     2.116000000     4.133000000    -2.083000000
O    -3.143000000     3.729000000    -4.242000000
H    -3.732000000     2.981000000    -4.340000000
H    -2.273000000     3.375000000    -4.427000000
O    -3.359000000    -1.449000000     0.812000000
H    -3.743000000    -0.576000000     0.895000000
H    -3.050000000    -1.660000000     1.693000000
O    -2.009000000     6.785000000     1.008000000
H    -2.209000000     7.651000000     1.363000000
H    -1.114000000     6.862000000     0.677000000
O     4.488000000     0.386000000    -3.008000000
H     4.258000000     0.932000000    -2.256000000
H     4.163000000     0.874000000    -3.765000000
O     3.657000000     1.161000000    -5.415000000
H     3.681000000     0.415000000    -6.014000000
H     2.779000000     1.526000000    -5.523000000
O     1.679000000    -4.371000000    -3.822000000
H     1.948000000    -3.454000000    -3.781000000
H     2.463000000    -4.838000000    -4.111000000
O     0.322000000    -4.520000000     3.212000000
H     1.025000000    -4.555000000     3.861000000
H     0.262000000    -5.414000000     2.876000000
O     3.196000000     4.108000000     0.693000000
H     3.141000000     3.480000000     1.413000000
H     2.438000000     3.910000000     0.144000000
O    -4.045000000     1.404000000     0.414000000
H    -4.569000000     1.474000000    -0.383000000
H    -4.262000000     2.191000000     0.914000000
O    -0.842000000    -2.785000000     5.265000000
H    -0.390000000    -3.170000000     4.515000000
H    -1.670000000    -3.262000000     5.317000000
O    -1.666000000     3.792000000     4.485000000
H    -1.859000000     3.018000000     3.957000000
H    -1.058000000     3.480000000     5.155000000
O    -1.717000000    -1.934000000    -4.247000000
H    -0.792000000    -1.692000000    -4.194000000
H    -1.714000000    -2.891000000    -4.254000000
O    -3.891000000    -4.179000000    -0.281000000
H    -3.870000000    -4.320000000    -1.227000000
H    -3.847000000    -3.229000000    -0.179000000
O     4.146000000    -3.470000000    -1.334000000
H     4.764000000    -2.759000000    -1.169000000
H     4.428000000    -4.174000000    -0.749000000
O    -2.443000000     4.423000000    -1.706000000
H    -1.654000000     3.882000000    -1.752000000
H    -2.901000000     4.247000000    -2.528000000
O     0.189000000    -7.012000000     1.212000000
H     0.513000000    -6.296000000     0.664000000
H    -0.553000000    -7.369000000     0.724000000
O     1.452000000    -5.085000000    -0.619000000
H     2.338000000    -4.760000000    -0.460000000
H     1.334000000    -5.005000000    -1.566000000
O     3.595000000     6.503000000    -3.229000000
H     3.395000000     5.567000000    -3.213000000
H     2.871000000     6.910000000    -2.754000000
O     3.052000000    -2.012000000    -3.333000000
H     3.300000000    -1.100000000    -3.184000000
H     3.331000000    -2.469000000    -2.539000000
O     4.730000000    -5.779000000     0.456000000
H     5.227000000    -6.392000000     0.997000000
H     3.953000000    -5.575000000     0.978000000
O     0.856000000     1.639000000    -4.543000000
H     0.103000000     1.674000000    -5.134000000
H     0.575000000     2.126000000    -3.768000000
O     4.929000000     5.968000000    -0.023000000
H     4.819000000     6.755000000     0.510000000
H     4.278000000     5.355000000     0.317000000
O    -3.902000000     6.846000000    -2.254000000
H    -4.157000000     7.481000000    -1.585000000
H    -3.602000000     6.084000000    -1.758000000
O    -1.144000000    -4.498000000    -3.823000000
H    -0.192000000    -4.396000000    -3.843000000
H    -1.286000000    -5.440000000    -3.921000000
O     4.301000000     2.322000000    -1.083000000
H     5.239000000     2.423000000    -1.243000000
H     4.133000000     2.852000000    -0.304000000
O    -3.110000000    -0.734000000    -6.408000000
H    -2.277000000    -0.638000000    -6.870000000
H    -2.879000000    -1.168000000    -5.587000000
O     2.782000000     3.848000000    -5.882000000
H     2.424000000     3.381000000    -5.128000000
H     3.678000000     3.520000000    -5.963000000
O    -1.547000000     1.911000000    -5.477000000
H    -1.980000000     1.117000000    -5.165000000
H    -1.920000000     2.062000000    -6.346000000
O    -3.560000000    -1.374000000    -2.002000000
H    -2.762000000    -0.960000000    -2.333000000
H    -3.570000000    -1.161000000    -1.069000000
O     0.790000000    -0.965000000    -4.613000000
H     1.007000000    -0.043000000    -4.750000000
H     1.587000000    -1.347000000    -4.247000000
O    -1.027000000     7.444000000    -2.460000000
H    -0.348000000     6.888000000    -2.841000000
H    -1.484000000     6.874000000    -1.842000000
O     5.294000000     2.446000000     2.893000000
H     4.357000000     2.381000000     2.709000000
H     5.340000000     2.838000000     3.766000000
O     1.448000000     2.045000000     4.726000000
H     0.698000000     1.824000000     5.279000000
H     1.598000000     2.976000000     4.888000000
O    -3.660000000    -4.138000000    -3.137000000
H    -3.537000000    -3.231000000    -2.859000000
H    -2.779000000    -4.512000000    -3.132000000
O     1.182000000    -1.292000000     6.573000000
H     1.972000000    -1.808000000     6.728000000
H     0.639000000    -1.847000000     6.013000000
O     2.090000000     6.844000000     2.538000000
H     1.862000000     6.253000000     3.255000000
H     1.559000000     6.543000000     1.801000000
O     0.649000000     6.281000000     0.433000000
H     1.163000000     6.827000000    -0.162000000
H     0.691000000     5.404000000     0.050000000
O    -1.978000000     1.423000000     3.130000000
H    -2.066000000     0.490000000     3.325000000
H    -1.827000000     1.458000000     2.186000000
O     5.909000000    -3.205000000     1.367000000
H     4.953000000    -3.196000000     1.410000000
H     6.184000000    -3.553000000     2.215000000
O     2.866000000     1.784000000     2.442000000
H     2.925000000     0.881000000     2.131000000
H     2.136000000     1.776000000     3.062000000
O    -2.294000000     3.839000000     1.118000000
H    -1.812000000     4.656000000     1.248000000
H    -2.456000000     3.805000000     0.175000000
O     2.043000000     7.879000000    -1.203000000
H     2.952000000     8.174000000    -1.254000000
H     1.526000000     8.680000000    -1.295000000
O     0.227000000     5.694000000    -4.171000000
H    -0.062000000     5.358000000    -5.019000000
H     0.288000000     4.918000000    -3.613000000
O    -3.013000000    -1.224000000     3.822000000
H    -2.932000000    -2.093000000     4.215000000
H    -3.604000000    -0.751000000     4.406000000
O     3.081000000    -3.489000000     2.285000000
H     2.996000000    -3.999000000     3.091000000
H     2.203000000    -3.142000000     2.128000000
O    -4.420000000    -5.550000000     1.995000000
H    -4.113000000    -5.145000000     1.184000000
H    -5.001000000    -6.254000000     1.707000000
