158
-3045.72099
C    -0.251000000    -0.169000000     1.424000000
H    -0.401000000    -0.020000000     2.490000000
C     0.409000000     0.927000000     0.807000000
H     0.943000000     1.748000000     1.279000000
C     0.574000000     0.893000000    -0.586000000
H     1.166000000     1.720000000    -1.000000000
C    -0.031000000    -0.054000000    -1.339000000
H    -0.046000000    -0.145000000    -2.422000000
C    -0.591000000    -1.142000000    -0.661000000
H    -0.715000000    -2.034000000    -1.269000000
C    -0.746000000    -1.199000000     0.720000000
C    -1.505000000    -2.337000000     1.339000000
O    -2.089000000    -3.191000000     0.737000000
O    -1.564000000    -2.505000000     2.555000000
O     3.047000000     4.536000000    -0.213000000
H     3.211000000     4.169000000     0.656000000
H     3.442000000     3.907000000    -0.817000000
O    -1.108000000     4.065000000    -3.335000000
H    -1.563000000     4.416000000    -4.100000000
H    -0.416000000     3.514000000    -3.699000000
O     4.792000000     6.865000000    -0.343000000
H     4.083000000     6.370000000    -0.754000000
H     5.589000000     6.404000000    -0.605000000
O    -2.200000000    -7.966000000     2.210000000
H    -3.052000000    -7.639000000     2.498000000
H    -1.760000000    -7.199000000     1.843000000
O     0.262000000     2.013000000     4.520000000
H     0.722000000     1.468000000     3.882000000
H     0.492000000     1.634000000     5.368000000
O    -4.686000000    -3.183000000     1.366000000
H    -4.792000000    -2.614000000     2.127000000
H    -3.745000000    -3.357000000     1.326000000
O    -3.777000000    -2.655000000    -2.778000000
H    -3.286000000    -3.399000000    -2.430000000
H    -3.903000000    -2.078000000    -2.025000000
O     2.780000000    -0.934000000    -5.793000000
H     2.664000000    -0.677000000    -4.878000000
H     3.108000000    -1.832000000    -5.749000000
O    -2.337000000    -5.030000000    -1.358000000
H    -2.233000000    -4.450000000    -0.604000000
H    -2.914000000    -5.727000000    -1.046000000
O    -0.190000000    -3.944000000    -2.749000000
H     0.515000000    -4.522000000    -2.458000000
H    -0.985000000    -4.333000000    -2.384000000
O     4.010000000     0.319000000     3.408000000
H     3.521000000    -0.463000000     3.150000000
H     4.880000000     0.193000000     3.029000000
O     6.354000000     0.817000000    -2.607000000
H     6.917000000     0.905000000    -1.838000000
H     5.549000000     1.276000000    -2.368000000
O     2.603000000     0.161000000    -3.486000000
H     2.889000000    -0.340000000    -2.722000000
H     1.668000000    -0.031000000    -3.562000000
O    -3.924000000     1.690000000    -0.728000000
H    -3.020000000     2.004000000    -0.691000000
H    -4.300000000     2.132000000    -1.489000000
O    -1.501000000     2.951000000    -0.214000000
H    -0.982000000     2.148000000    -0.259000000
H    -0.852000000     3.650000000    -0.124000000
O     0.088000000     0.534000000    -6.740000000
H     0.450000000     0.845000000    -7.570000000
H     0.512000000    -0.312000000    -6.595000000
O    -3.583000000     5.157000000    -1.840000000
H    -3.556000000     5.940000000    -1.290000000
H    -2.871000000     4.609000000    -1.512000000
O    -0.084000000    -4.232000000     4.111000000
H    -0.476000000    -3.509000000     3.622000000
H     0.656000000    -3.837000000     4.571000000
O    -2.428000000     3.269000000     2.474000000
H    -1.823000000     3.923000000     2.825000000
H    -2.125000000     3.119000000     1.579000000
O    -3.266000000    -4.534000000     3.815000000
H    -2.764000000    -4.903000000     4.542000000
H    -2.604000000    -4.170000000     3.227000000
O     2.973000000     3.686000000    -5.002000000
H     3.409000000     3.541000000    -5.841000000
H     2.417000000     4.451000000    -5.149000000
O    -2.335000000     1.478000000    -3.985000000
H    -3.256000000     1.741000000    -3.962000000
H    -1.928000000     1.968000000    -3.270000000
O     0.391000000     5.221000000     0.864000000
H     1.128000000     5.012000000     0.289000000
H     0.762000000     5.205000000     1.746000000
O     3.727000000    -1.628000000    -1.622000000
H     4.404000000    -2.036000000    -2.162000000
H     3.770000000    -2.098000000    -0.789000000
O    -2.370000000    -1.274000000    -4.684000000
H    -2.603000000    -0.358000000    -4.533000000
H    -2.929000000    -1.766000000    -4.082000000
O    -0.690000000    -5.306000000     1.759000000
H    -0.589000000    -5.244000000     2.709000000
H    -1.291000000    -4.595000000     1.536000000
O     6.366000000     2.236000000    -0.283000000
H     5.435000000     2.180000000    -0.069000000
H     6.546000000     3.175000000    -0.328000000
O     1.887000000     5.341000000     3.161000000
H     2.356000000     4.529000000     2.968000000
H     2.518000000     6.034000000     2.968000000
O    -2.480000000     2.181000000     5.046000000
H    -2.696000000     2.569000000     4.198000000
H    -1.606000000     1.811000000     4.925000000
O    -1.139000000     7.396000000     1.842000000
H    -0.878000000     6.564000000     1.445000000
H    -1.728000000     7.792000000     1.200000000
O    -0.553000000     4.690000000     4.159000000
H    -0.264000000     3.814000000     4.415000000
H     0.248000000     5.137000000     3.886000000
O    -5.150000000    -3.290000000     5.282000000
H    -4.464000000    -3.741000000     4.791000000
H    -5.587000000    -3.983000000     5.776000000
O     1.049000000    -6.089000000    -1.632000000
H     0.383000000    -6.581000000    -2.111000000
H     1.198000000    -6.600000000    -0.836000000
O    -4.396000000    -0.266000000     2.360000000
H    -3.553000000     0.033000000     2.701000000
H    -4.924000000    -0.435000000     3.140000000
O     0.190000000    -2.021000000    -4.636000000
H     0.145000000    -2.501000000    -3.809000000
H    -0.710000000    -1.737000000    -4.797000000
O    -2.208000000    -0.841000000     4.471000000
H    -2.061000000    -1.386000000     3.698000000
H    -1.330000000    -0.664000000     4.810000000
O     2.202000000    -2.880000000     4.377000000
H     2.654000000    -2.708000000     3.551000000
H     2.905000000    -2.960000000     5.022000000
O     0.848000000    -6.889000000     3.769000000
H     1.640000000    -7.119000000     4.254000000
H     0.648000000    -5.995000000     4.048000000
O     4.388000000     5.420000000    -3.356000000
H     4.836000000     5.933000000    -4.029000000
H     3.648000000     5.021000000    -3.812000000
O     0.300000000    -0.971000000     5.755000000
H    -0.194000000    -1.248000000     6.526000000
H     0.920000000    -1.683000000     5.599000000
O     3.654000000     2.505000000    -2.342000000
H     3.053000000     1.767000000    -2.443000000
H     3.717000000     2.885000000    -3.218000000
O     1.526000000    -3.979000000     0.330000000
H     1.477000000    -4.447000000    -0.503000000
H     0.875000000    -4.408000000     0.885000000
O     1.184000000    -7.265000000     0.850000000
H     1.242000000    -8.153000000     1.203000000
H     0.582000000    -6.812000000     1.439000000
O    -4.591000000    -1.021000000    -0.861000000
H    -4.948000000    -1.474000000    -0.097000000
H    -4.282000000    -0.182000000    -0.520000000
O     0.297000000     2.025000000    -4.484000000
H     1.117000000     2.151000000    -4.962000000
H    -0.046000000     1.195000000    -4.813000000
O     2.981000000    -1.907000000     1.955000000
H     2.334000000    -2.377000000     1.429000000
H     3.795000000    -1.984000000     1.458000000
O     3.722000000     0.822000000     0.215000000
H     2.861000000     0.520000000     0.503000000
H     3.958000000     0.230000000    -0.499000000
O     3.239000000     2.914000000     2.207000000
H     3.768000000     2.868000000     3.003000000
H     3.401000000     2.081000000     1.763000000
