158
-3030.25534
C     0.268000000     0.418000000    -1.380000000
H     0.502000000     0.577000000    -2.430000000
C    -0.313000000    -0.794000000    -0.968000000
H    -0.535000000    -1.559000000    -1.707000000
C    -0.501000000    -1.078000000     0.386000000
H    -0.819000000    -2.093000000     0.686000000
C    -0.109000000    -0.109000000     1.302000000
H    -0.211000000    -0.394000000     2.346000000
C     0.370000000     1.161000000     0.916000000
H     0.583000000     1.899000000     1.685000000
C     0.669000000     1.396000000    -0.473000000
C     1.135000000     2.714000000    -1.039000000
O     1.265000000     2.818000000    -2.214000000
O     1.358000000     3.654000000    -0.328000000
O    -2.132000000     6.143000000    -4.482000000
H    -1.429000000     6.694000000    -4.827000000
H    -1.679000000     5.421000000    -4.048000000
O     5.239000000     2.242000000    -1.517000000
H     4.338000000     2.528000000    -1.366000000
H     5.629000000     2.208000000    -0.644000000
O     3.475000000     4.400000000    -2.623000000
H     3.369000000     5.293000000    -2.293000000
H     2.765000000     3.907000000    -2.212000000
O    -4.248000000    -4.865000000     4.145000000
H    -3.576000000    -4.418000000     3.631000000
H    -4.237000000    -5.766000000     3.823000000
O    -2.213000000    -4.320000000     1.869000000
H    -2.149000000    -3.466000000     2.297000000
H    -1.334000000    -4.483000000     1.527000000
O    -5.445000000    -5.909000000    -1.549000000
H    -4.795000000    -6.031000000    -0.857000000
H    -5.007000000    -5.353000000    -2.193000000
O    -0.575000000     4.554000000     1.371000000
H    -0.102000000     5.377000000     1.496000000
H     0.012000000     4.020000000     0.836000000
O     4.857000000    -0.574000000    -2.808000000
H     4.116000000    -0.340000000    -3.367000000
H     5.471000000     0.154000000    -2.908000000
O    -1.392000000    -0.376000000    -4.867000000
H    -0.473000000    -0.590000000    -4.707000000
H    -1.485000000     0.527000000    -4.563000000
O     2.646000000     7.366000000    -2.984000000
H     1.953000000     7.034000000    -2.414000000
H     2.925000000     8.184000000    -2.571000000
O     2.860000000    -6.378000000     0.442000000
H     3.525000000    -5.700000000     0.323000000
H     2.616000000    -6.633000000    -0.448000000
O     3.353000000     0.403000000    -4.827000000
H     3.863000000     0.548000000    -5.624000000
H     2.705000000     1.108000000    -4.826000000
O     2.290000000     4.970000000    -5.215000000
H     2.639000000     4.768000000    -4.347000000
H     2.061000000     5.898000000    -5.171000000
O    -4.477000000    -1.295000000    -2.275000000
H    -3.851000000    -0.697000000    -1.868000000
H    -4.730000000    -0.861000000    -3.089000000
O     1.572000000    -3.929000000     3.812000000
H     0.812000000    -3.454000000     4.148000000
H     2.322000000    -3.387000000     4.059000000
O    -2.258000000     0.424000000     5.154000000
H    -2.696000000     0.852000000     4.418000000
H    -1.354000000     0.310000000     4.861000000
O     0.094000000    -3.980000000    -3.311000000
H     0.565000000    -3.155000000    -3.426000000
H     0.762000000    -4.596000000    -3.007000000
O    -3.156000000    -6.277000000     0.219000000
H    -3.037000000    -6.118000000     1.155000000
H    -2.714000000    -5.543000000    -0.207000000
O    -2.877000000     4.080000000     3.846000000
H    -3.561000000     4.039000000     4.513000000
H    -3.128000000     3.416000000     3.204000000
O     4.450000000     1.946000000     2.526000000
H     4.450000000     1.009000000     2.333000000
H     3.678000000     2.077000000     3.076000000
O    -1.502000000     2.822000000    -2.279000000
H    -0.555000000     2.814000000    -2.139000000
H    -1.618000000     2.444000000    -3.150000000
O    -0.326000000    -8.565000000     1.015000000
H    -0.390000000    -9.171000000     0.278000000
H    -0.077000000    -7.730000000     0.618000000
O    -0.779000000    -2.787000000     4.532000000
H    -1.692000000    -2.556000000     4.360000000
H    -0.792000000    -3.175000000     5.407000000
O     0.914000000     6.702000000     1.862000000
H     0.320000000     7.332000000     2.270000000
H     1.769000000     6.895000000     2.246000000
O     2.285000000     2.500000000     4.106000000
H     1.444000000     2.091000000     3.900000000
H     2.085000000     3.111000000     4.815000000
O    -1.923000000     2.241000000    -4.848000000
H    -1.451000000     2.473000000    -5.647000000
H    -2.811000000     2.568000000    -4.991000000
O    -2.670000000     3.695000000     0.199000000
H    -2.005000000     4.002000000     0.815000000
H    -2.220000000     3.664000000    -0.645000000
O    -1.332000000    -3.995000000    -5.629000000
H    -0.531000000    -3.938000000    -6.151000000
H    -1.029000000    -3.971000000    -4.722000000
O    -4.323000000    -3.904000000    -3.203000000
H    -4.376000000    -3.081000000    -2.716000000
H    -4.621000000    -3.679000000    -4.085000000
O    -2.194000000    -4.526000000    -1.538000000
H    -1.450000000    -4.111000000    -1.975000000
H    -2.910000000    -4.460000000    -2.171000000
O     1.895000000    -2.091000000    -4.224000000
H     2.451000000    -2.781000000    -3.861000000
H     2.488000000    -1.355000000    -4.368000000
O     1.319000000     6.178000000    -0.954000000
H     1.374000000     5.222000000    -0.967000000
H     1.360000000     6.407000000    -0.025000000
O     1.130000000    -0.896000000     5.721000000
H     1.060000000    -1.056000000     6.662000000
H     0.378000000    -1.352000000     5.344000000
O    -2.472000000    -7.251000000    -2.475000000
H    -2.647000000    -6.757000000    -1.673000000
H    -3.276000000    -7.747000000    -2.630000000
O     5.978000000     3.720000000    -4.078000000
H     6.527000000     3.537000000    -3.315000000
H     5.110000000     3.892000000    -3.712000000
O     3.644000000     4.097000000     1.007000000
H     2.710000000     4.034000000     0.807000000
H     3.817000000     3.348000000     1.578000000
O     4.615000000     7.389000000     0.066000000
H     4.352000000     8.289000000     0.258000000
H     4.049000000     6.851000000     0.621000000
O    -3.305000000     1.651000000     2.799000000
H    -4.160000000     1.547000000     2.381000000
H    -2.683000000     1.669000000     2.072000000
O     3.032000000    -0.181000000     1.699000000
H     2.238000000     0.117000000     1.255000000
H     3.214000000    -1.038000000     1.313000000
O     3.307000000    -1.508000000     4.248000000
H     3.412000000    -0.749000000     3.675000000
H     2.548000000    -1.296000000     4.790000000
O    -0.427000000     2.685000000     4.254000000
H    -0.544000000     2.873000000     5.185000000
H    -0.929000000     3.367000000     3.807000000
O     5.772000000     4.960000000     2.557000000
H     5.234000000     4.691000000     1.813000000
H     5.160000000     5.000000000     3.293000000
O    -2.978000000     0.496000000    -1.007000000
H    -2.253000000    -0.057000000    -0.714000000
H    -2.633000000     1.387000000    -0.962000000
O     1.316000000     2.047000000    -4.578000000
H     1.039000000     2.792000000    -5.111000000
H     1.309000000     2.378000000    -3.680000000
O     1.630000000    -0.976000000    -7.217000000
H     1.506000000    -0.040000000    -7.372000000
H     1.481000000    -1.086000000    -6.278000000
O    -3.144000000    -2.067000000     3.170000000
H    -3.447000000    -1.352000000     2.611000000
H    -3.512000000    -1.869000000     4.032000000
O    -6.544000000    -1.228000000     0.137000000
H    -7.294000000    -1.809000000     0.007000000
H    -5.924000000    -1.482000000    -0.547000000
O     0.528000000    -5.103000000     1.370000000
H     1.005000000    -4.731000000     2.112000000
H     1.017000000    -5.895000000     1.145000000
