158
-3054.65171
C     0.041000000     0.205000000    -1.471000000
H     0.132000000     0.365000000    -2.542000000
C     0.772000000    -0.757000000    -0.790000000
H     1.490000000    -1.427000000    -1.257000000
C     0.613000000    -0.827000000     0.612000000
H     1.227000000    -1.543000000     1.158000000
C    -0.202000000     0.019000000     1.324000000
H    -0.258000000    -0.101000000     2.403000000
C    -0.810000000     1.078000000     0.601000000
H    -1.281000000     1.852000000     1.202000000
C    -0.709000000     1.144000000    -0.837000000
C    -1.630000000     2.056000000    -1.619000000
O    -1.815000000     1.875000000    -2.796000000
O    -2.139000000     2.986000000    -1.003000000
O     2.722000000     2.142000000    -5.910000000
H     2.056000000     1.936000000    -5.255000000
H     3.082000000     2.984000000    -5.630000000
O     0.157000000    -3.234000000     6.211000000
H     0.992000000    -3.254000000     6.678000000
H    -0.050000000    -2.303000000     6.130000000
O    -3.762000000     7.455000000    -0.199000000
H    -4.591000000     7.920000000    -0.314000000
H    -3.487000000     7.231000000    -1.088000000
O    -0.314000000     4.736000000    -2.093000000
H    -0.164000000     5.523000000    -1.569000000
H    -1.078000000     4.323000000    -1.691000000
O    -0.140000000     6.896000000    -0.558000000
H     0.582000000     7.477000000    -0.320000000
H    -0.335000000     6.415000000     0.247000000
O    -6.794000000     3.154000000    -4.173000000
H    -7.238000000     2.412000000    -3.762000000
H    -5.867000000     2.916000000    -4.162000000
O    -0.934000000    -0.497000000     5.798000000
H    -1.832000000    -0.810000000     5.691000000
H    -0.931000000     0.369000000     5.392000000
O    -4.291000000     3.225000000    -7.099000000
H    -3.644000000     3.862000000    -7.402000000
H    -3.777000000     2.567000000    -6.631000000
O     6.710000000    -1.938000000     2.427000000
H     6.894000000    -1.425000000     3.213000000
H     5.971000000    -2.496000000     2.671000000
O     0.863000000     2.505000000    -3.799000000
H    -0.078000000     2.335000000    -3.839000000
H     0.939000000     3.314000000    -3.292000000
O    -2.696000000    -1.786000000     0.370000000
H    -2.893000000    -2.714000000     0.498000000
H    -1.979000000    -1.778000000    -0.264000000
O     0.895000000    -5.212000000     0.819000000
H     0.341000000    -5.492000000     0.090000000
H     0.279000000    -5.004000000     1.521000000
O     5.414000000    -1.630000000    -0.871000000
H     5.364000000    -0.949000000    -0.200000000
H     4.676000000    -2.209000000    -0.681000000
O     0.386000000    -5.672000000     4.945000000
H     1.089000000    -6.240000000     5.259000000
H     0.301000000    -4.999000000     5.621000000
O     2.416000000     2.364000000     0.221000000
H     2.637000000     3.271000000     0.011000000
H     1.536000000     2.411000000     0.594000000
O    -2.050000000     1.921000000    -5.407000000
H    -2.035000000     1.802000000    -4.458000000
H    -1.586000000     1.158000000    -5.752000000
O     4.181000000    -6.103000000     3.268000000
H     3.697000000    -5.449000000     3.771000000
H     3.805000000    -6.057000000     2.389000000
O    -2.472000000    -1.021000000    -2.965000000
H    -2.374000000    -0.239000000    -2.421000000
H    -1.576000000    -1.261000000    -3.202000000
O     2.456000000    -2.276000000     3.125000000
H     2.964000000    -2.548000000     2.361000000
H     2.687000000    -1.356000000     3.251000000
O     2.783000000     0.483000000     3.591000000
H     2.158000000     1.110000000     3.227000000
H     3.632000000     0.767000000     3.254000000
O    -6.002000000     5.374000000    -2.042000000
H    -6.031000000     6.082000000    -2.685000000
H    -5.362000000     4.756000000    -2.395000000
O     3.314000000    -6.560000000     0.709000000
H     3.422000000    -6.922000000    -0.171000000
H     2.420000000    -6.217000000     0.719000000
O    -3.946000000     3.476000000     3.753000000
H    -3.636000000     3.654000000     2.865000000
H    -4.861000000     3.216000000     3.639000000
O    -2.279000000    -2.122000000     3.325000000
H    -2.513000000    -1.582000000     2.570000000
H    -1.475000000    -2.568000000     3.060000000
O     4.070000000    -1.112000000    -3.249000000
H     3.614000000    -0.322000000    -2.959000000
H     4.862000000    -1.141000000    -2.713000000
O     2.373000000    -1.962000000    -5.372000000
H     2.919000000    -1.664000000    -4.644000000
H     2.798000000    -1.607000000    -6.152000000
O    -3.691000000     2.618000000     1.109000000
H    -4.586000000     2.734000000     0.790000000
H    -3.143000000     2.746000000     0.335000000
O     4.021000000    -0.121000000     5.901000000
H     3.255000000    -0.390000000     6.407000000
H     3.671000000     0.104000000     5.039000000
O    -1.465000000    -6.855000000     3.021000000
H    -0.987000000    -6.245000000     3.581000000
H    -2.359000000    -6.843000000     3.362000000
O    -0.005000000    -2.135000000    -4.461000000
H    -0.198000000    -3.054000000    -4.650000000
H     0.842000000    -1.977000000    -4.879000000
O    -4.300000000     3.313000000    -2.917000000
H    -4.117000000     2.399000000    -3.135000000
H    -3.446000000     3.679000000    -2.685000000
O     5.268000000    -4.894000000    -1.510000000
H     5.689000000    -5.744000000    -1.376000000
H     5.415000000    -4.698000000    -2.436000000
O    -5.769000000     3.170000000    -0.444000000
H    -5.019000000     2.969000000    -1.004000000
H    -6.225000000     3.878000000    -0.900000000
O    -0.986000000     4.877000000    -4.711000000
H    -1.045000000     4.666000000    -3.779000000
H    -1.529000000     4.216000000    -5.141000000
O     3.130000000     1.383000000    -2.407000000
H     2.327000000     1.784000000    -2.739000000
H     3.073000000     1.483000000    -1.456000000
O     3.390000000    -4.104000000     4.871000000
H     2.993000000    -3.874000000     5.711000000
H     2.999000000    -3.493000000     4.246000000
O    -4.697000000     0.536000000    -3.718000000
H    -3.949000000    -0.013000000    -3.483000000
H    -5.395000000    -0.087000000    -3.924000000
O     0.535000000     2.856000000     2.761000000
H    -0.311000000     2.769000000     3.200000000
H     0.481000000     3.693000000     2.300000000
O    -3.333000000    -4.388000000     4.407000000
H    -3.002000000    -4.496000000     5.298000000
H    -2.922000000    -3.582000000     4.095000000
O    -1.704000000     2.413000000     5.347000000
H    -2.294000000     2.419000000     6.101000000
H    -2.130000000     2.982000000     4.706000000
O    -3.721000000    -4.346000000     0.371000000
H    -4.258000000    -5.096000000     0.117000000
H    -3.400000000    -4.565000000     1.245000000
O    -0.554000000    -0.347000000    -6.361000000
H    -0.607000000    -1.065000000    -5.730000000
H     0.278000000    -0.486000000    -6.813000000
O     1.497000000     2.135000000     6.037000000
H     1.849000000     1.447000000     6.602000000
H     0.695000000     1.760000000     5.674000000
O     0.120000000    -3.710000000     3.071000000
H     0.744000000    -3.004000000     3.243000000
H     0.364000000    -4.401000000     3.687000000
O     4.073000000    -3.487000000     0.760000000
H     3.396000000    -4.149000000     0.616000000
H     4.808000000    -3.775000000     0.218000000
O    -1.362000000     4.805000000     1.063000000
H    -1.954000000     4.334000000     0.476000000
H    -1.937000000     5.356000000     1.592000000
O    -4.504000000     0.045000000     1.709000000
H    -3.777000000    -0.474000000     1.365000000
H    -4.300000000     0.944000000     1.450000000
O     4.782000000     0.585000000     0.564000000
H     4.021000000     1.158000000     0.661000000
H     5.250000000     0.665000000     1.395000000
