158
-3016.57932
C    -0.851000000    -0.051000000     1.172000000
H    -1.476000000     0.058000000     2.055000000
C    -0.031000000     0.980000000     0.854000000
H     0.040000000     1.844000000     1.509000000
C     0.737000000     0.930000000    -0.290000000
H     1.503000000     1.666000000    -0.512000000
C     0.649000000    -0.166000000    -1.109000000
H     1.182000000    -0.209000000    -2.055000000
C    -0.200000000    -1.198000000    -0.869000000
H    -0.359000000    -2.038000000    -1.539000000
C    -1.081000000    -1.059000000     0.238000000
C    -2.096000000    -2.172000000     0.478000000
O    -2.157000000    -3.153000000    -0.182000000
O    -2.735000000    -2.113000000     1.489000000
O     2.024000000     4.244000000    -0.867000000
H     2.724000000     3.821000000    -0.369000000
H     2.311000000     4.186000000    -1.779000000
O    -7.587000000    -1.679000000    -0.311000000
H    -6.921000000    -1.111000000     0.076000000
H    -7.200000000    -1.973000000    -1.136000000
O    -4.874000000     2.600000000    -0.100000000
H    -4.547000000     1.806000000    -0.522000000
H    -4.107000000     2.976000000     0.331000000
O    -0.816000000     3.948000000    -1.489000000
H    -1.111000000     4.766000000    -1.891000000
H     0.050000000     4.153000000    -1.138000000
O     5.575000000     4.703000000     0.729000000
H     4.758000000     4.204000000     0.708000000
H     5.950000000     4.583000000    -0.143000000
O    -0.976000000    -7.882000000    -0.637000000
H    -0.346000000    -8.153000000     0.030000000
H    -1.002000000    -6.927000000    -0.569000000
O    -1.270000000     1.558000000     5.802000000
H    -0.901000000     1.947000000     6.596000000
H    -0.511000000     1.383000000     5.246000000
O    -6.244000000    -1.982000000    -2.532000000
H    -5.400000000    -2.414000000    -2.403000000
H    -6.239000000    -1.717000000    -3.452000000
O    -4.834000000    -3.563000000    -0.371000000
H    -5.075000000    -2.706000000    -0.021000000
H    -3.879000000    -3.585000000    -0.316000000
O    -0.664000000    -2.767000000    -5.130000000
H    -1.135000000    -2.659000000    -4.303000000
H    -1.336000000    -2.663000000    -5.803000000
O    -2.031000000    -3.660000000    -2.894000000
H    -2.250000000    -3.578000000    -1.965000000
H    -2.444000000    -4.479000000    -3.166000000
O     0.736000000    -5.050000000    -3.049000000
H     0.431000000    -4.971000000    -2.145000000
H     0.132000000    -4.505000000    -3.553000000
O     0.901000000     0.810000000     3.886000000
H     1.076000000    -0.042000000     3.487000000
H     1.742000000     1.268000000     3.851000000
O     4.405000000    -0.747000000     0.557000000
H     4.821000000     0.093000000     0.753000000
H     4.957000000    -1.134000000    -0.123000000
O     4.752000000    -1.949000000     3.015000000
H     4.829000000    -1.388000000     2.244000000
H     5.656000000    -2.122000000     3.277000000
O     7.546000000     2.238000000    -2.305000000
H     7.395000000     1.649000000    -1.566000000
H     6.705000000     2.675000000    -2.439000000
O     2.280000000    -2.643000000     4.314000000
H     3.060000000    -2.094000000     4.398000000
H     1.687000000    -2.133000000     3.762000000
O     4.707000000    -0.903000000    -3.891000000
H     5.200000000    -1.231000000    -3.139000000
H     4.062000000    -1.587000000    -4.072000000
O    -4.105000000     0.567000000    -2.005000000
H    -3.271000000     0.963000000    -2.259000000
H    -4.671000000     0.690000000    -2.767000000
O    -1.533000000     1.443000000    -2.214000000
H    -1.127000000     0.851000000    -1.581000000
H    -1.397000000     2.316000000    -1.848000000
O    -0.119000000    -4.910000000     2.624000000
H    -0.767000000    -4.333000000     3.028000000
H    -0.113000000    -5.690000000     3.179000000
O     0.841000000     4.396000000     4.518000000
H     0.816000000     4.019000000     5.397000000
H     1.322000000     5.217000000     4.622000000
O    -4.769000000    -3.188000000     3.114000000
H    -4.821000000    -4.093000000     2.807000000
H    -4.152000000    -2.767000000     2.516000000
O    -0.194000000     2.176000000    -4.416000000
H    -0.621000000     1.835000000    -3.630000000
H     0.679000000     2.436000000    -4.121000000
O     3.353000000     2.621000000     3.798000000
H     4.253000000     2.717000000     4.110000000
H     2.835000000     3.168000000     4.389000000
O    -2.647000000     3.942000000     0.702000000
H    -2.177000000     3.657000000    -0.082000000
H    -1.959000000     4.238000000     1.299000000
O    -0.549000000     0.658000000    -6.778000000
H    -0.410000000     0.925000000    -5.869000000
H    -1.469000000     0.396000000    -6.813000000
O    -0.215000000    -5.009000000     0.011000000
H     0.026000000    -4.980000000     0.937000000
H    -0.930000000    -4.378000000    -0.070000000
O     6.442000000     1.518000000     0.338000000
H     7.282000000     1.060000000     0.304000000
H     6.570000000     2.204000000     0.993000000
O    -0.664000000     5.035000000     2.189000000
H     0.066000000     5.460000000     1.739000000
H    -0.279000000     4.682000000     2.991000000
O     1.469000000     6.461000000     0.750000000
H     1.635000000     5.661000000     0.251000000
H     2.312000000     6.674000000     1.150000000
O    -5.095000000     0.344000000     6.170000000
H    -5.418000000     1.176000000     5.823000000
H    -4.781000000    -0.130000000     5.400000000
O    -6.088000000    -5.248000000     1.500000000
H    -5.727000000    -5.042000000     0.638000000
H    -6.764000000    -4.585000000     1.643000000
O    -6.811000000    -0.658000000     3.807000000
H    -7.135000000     0.066000000     3.273000000
H    -5.866000000    -0.666000000     3.653000000
O    -5.034000000    -0.947000000     0.317000000
H    -4.208000000    -1.096000000     0.778000000
H    -4.773000000    -0.578000000    -0.527000000
O    -2.973000000     3.519000000     4.255000000
H    -3.288000000     2.921000000     3.577000000
H    -2.336000000     3.004000000     4.751000000
O    -3.917000000    -0.188000000     3.176000000
H    -3.450000000    -0.678000000     2.499000000
H    -3.531000000    -0.489000000     3.999000000
O     2.081000000    -2.455000000    -4.323000000
H     2.347000000    -3.121000000    -3.689000000
H     1.137000000    -2.579000000    -4.420000000
O    -1.906000000    -1.283000000     5.720000000
H    -1.754000000    -1.676000000     6.579000000
H    -1.502000000    -0.417000000     5.778000000
O    -1.876000000    -3.293000000     3.796000000
H    -1.939000000    -2.629000000     4.483000000
H    -2.123000000    -2.832000000     2.994000000
O    -3.665000000    -5.752000000     4.403000000
H    -3.256000000    -4.959000000     4.056000000
H    -3.412000000    -5.768000000     5.326000000
O    -7.539000000    -2.968000000     2.072000000
H    -6.978000000    -2.495000000     2.687000000
H    -7.812000000    -2.306000000     1.438000000
O     3.119000000     3.703000000    -3.226000000
H     3.240000000     2.909000000    -3.747000000
H     3.244000000     4.419000000    -3.849000000
O     2.846000000    -3.681000000     1.337000000
H     2.736000000    -2.737000000     1.453000000
H     1.968000000    -4.041000000     1.464000000
O     2.273000000    -6.996000000    -0.586000000
H     1.805000000    -7.660000000    -0.080000000
H     1.734000000    -6.209000000    -0.504000000
O     3.043000000     1.533000000    -4.629000000
H     3.611000000     0.861000000    -4.252000000
H     2.864000000     1.224000000    -5.517000000
O     1.968000000    -0.848000000     1.868000000
H     2.861000000    -0.683000000     1.565000000
H     1.415000000    -0.350000000     1.266000000
O     3.569000000     2.934000000     1.005000000
H     3.240000000     2.816000000     1.896000000
H     4.142000000     2.181000000     0.860000000
