158
-3038.41605
C    -0.777000000    -0.729000000    -0.997000000
H    -1.368000000    -1.438000000    -1.572000000
C    -0.189000000    -1.288000000     0.131000000
H    -0.325000000    -2.339000000     0.372000000
C     0.469000000    -0.471000000     1.033000000
H     0.884000000    -0.889000000     1.945000000
C     0.546000000     0.835000000     0.797000000
H     1.037000000     1.498000000     1.504000000
C     0.042000000     1.417000000    -0.380000000
H     0.186000000     2.459000000    -0.654000000
C    -0.633000000     0.598000000    -1.313000000
C    -1.264000000     1.244000000    -2.534000000
O    -1.781000000     0.582000000    -3.387000000
O    -1.098000000     2.437000000    -2.673000000
O     1.877000000    -4.573000000    -3.519000000
H     2.645000000    -5.144000000    -3.552000000
H     1.749000000    -4.398000000    -2.587000000
O     2.749000000    -3.270000000     4.533000000
H     2.074000000    -3.605000000     5.123000000
H     2.261000000    -2.873000000     3.811000000
O     1.837000000     5.645000000     3.549000000
H     2.440000000     5.366000000     4.238000000
H     1.176000000     4.953000000     3.516000000
O     3.052000000     2.315000000    -0.518000000
H     2.538000000     2.538000000    -1.294000000
H     2.782000000     2.955000000     0.141000000
O    -4.836000000    -3.539000000    -3.408000000
H    -5.238000000    -3.654000000    -4.270000000
H    -4.595000000    -2.613000000    -3.378000000
O    -4.534000000     5.260000000    -2.144000000
H    -3.874000000     4.916000000    -1.542000000
H    -4.348000000     6.197000000    -2.193000000
O     1.295000000     3.128000000    -2.626000000
H     1.283000000     2.933000000    -3.563000000
H     0.383000000     3.038000000    -2.350000000
O    -4.247000000    -0.730000000    -4.375000000
H    -3.342000000    -0.455000000    -4.229000000
H    -4.701000000     0.069000000    -4.643000000
O     3.496000000    -0.933000000     2.641000000
H     3.660000000    -0.937000000     1.697000000
H     4.082000000    -0.257000000     2.982000000
O    -2.003000000     4.912000000     1.846000000
H    -2.182000000     5.843000000     1.979000000
H    -1.146000000     4.892000000     1.419000000
O     5.853000000    -2.249000000     2.736000000
H     4.914000000    -2.159000000     2.895000000
H     5.911000000    -2.665000000     1.875000000
O     1.722000000     1.504000000    -5.358000000
H     2.391000000     1.070000000    -4.829000000
H     1.065000000     0.826000000    -5.516000000
O    -4.300000000    -3.455000000     1.891000000
H    -4.385000000    -3.236000000     0.963000000
H    -3.496000000    -3.016000000     2.168000000
O    -4.194000000     1.363000000    -6.272000000
H    -3.686000000     1.014000000    -7.004000000
H    -4.431000000     2.249000000    -6.546000000
O     2.480000000     5.531000000    -2.327000000
H     3.317000000     5.084000000    -2.452000000
H     1.822000000     4.856000000    -2.491000000
O     2.120000000    -3.867000000    -0.863000000
H     3.052000000    -3.680000000    -0.749000000
H     1.731000000    -3.676000000    -0.010000000
O    -0.474000000    -0.645000000    -5.418000000
H    -0.910000000    -0.229000000    -4.675000000
H    -0.370000000    -1.559000000    -5.154000000
O     5.146000000     1.201000000     3.057000000
H     5.934000000     1.165000000     3.599000000
H     5.473000000     1.357000000     2.170000000
O     2.315000000    -0.952000000    -1.484000000
H     1.717000000    -1.525000000    -1.965000000
H     1.743000000    -0.404000000    -0.948000000
O    -1.823000000    -1.495000000     2.684000000
H    -1.563000000    -0.682000000     3.119000000
H    -1.364000000    -1.474000000     1.844000000
O    -2.424000000    -5.746000000     0.543000000
H    -1.678000000    -6.149000000     0.100000000
H    -2.780000000    -5.130000000    -0.098000000
O    -3.862000000    -0.100000000    -0.412000000
H    -4.135000000     0.585000000    -1.023000000
H    -3.253000000     0.339000000     0.182000000
O    -4.495000000    -2.855000000    -0.681000000
H    -4.267000000    -1.928000000    -0.742000000
H    -4.157000000    -3.239000000    -1.490000000
O    -2.675000000     3.812000000    -0.807000000
H    -2.463000000     3.305000000    -1.591000000
H    -2.035000000     4.525000000    -0.803000000
O    -1.648000000     6.394000000    -2.304000000
H    -2.238000000     7.082000000    -1.997000000
H    -2.026000000     6.108000000    -3.136000000
O    -2.643000000     1.678000000     1.451000000
H    -2.067000000     1.431000000     2.174000000
H    -2.251000000     2.475000000     1.094000000
O    -2.984000000     5.329000000    -4.687000000
H    -2.762000000     4.849000000    -5.485000000
H    -3.792000000     4.920000000    -4.378000000
O    -1.677000000     0.769000000     3.887000000
H    -2.550000000     0.567000000     4.224000000
H    -1.089000000     0.583000000     4.618000000
O     4.406000000    -1.803000000     0.038000000
H     4.984000000    -2.005000000    -0.697000000
H     3.525000000    -1.835000000    -0.334000000
O    -0.169000000    -3.502000000     3.470000000
H    -0.596000000    -2.646000000     3.418000000
H    -0.892000000    -4.129000000     3.494000000
O     0.310000000     5.144000000    -4.910000000
H     0.262000000     5.345000000    -5.844000000
H    -0.236000000     4.365000000    -4.804000000
O    -1.351000000     2.628000000    -5.636000000
H    -2.291000000     2.462000000    -5.709000000
H    -1.121000000     2.321000000    -4.759000000
O    -2.235000000    -5.222000000     3.339000000
H    -2.239000000    -5.261000000     2.382000000
H    -2.960000000    -5.788000000     3.604000000
O     1.016000000     2.961000000     3.803000000
H     0.446000000     2.192000000     3.775000000
H     1.503000000     2.869000000     4.621000000
O    -2.654000000    -1.920000000    -6.342000000
H    -3.123000000    -1.623000000    -5.562000000
H    -1.809000000    -1.471000000    -6.299000000
O     3.221000000     3.544000000     2.082000000
H     2.402000000     3.465000000     2.572000000
H     3.665000000     4.293000000     2.479000000
O     3.752000000    -5.311000000     3.132000000
H     3.433000000    -4.614000000     3.705000000
H     3.030000000    -5.471000000     2.524000000
O     1.573000000    -5.592000000     1.433000000
H     1.061000000    -5.727000000     2.230000000
H     1.044000000    -5.984000000     0.739000000
O    -0.359000000     5.264000000    -0.225000000
H     0.546000000     4.953000000    -0.232000000
H    -0.395000000     5.910000000    -0.931000000
O    -1.981000000     1.066000000    -8.276000000
H    -2.376000000     1.881000000    -8.587000000
H    -1.428000000     1.334000000    -7.542000000
O    -1.778000000     4.206000000     4.527000000
H    -2.733000000     4.139000000     4.543000000
H    -1.566000000     4.382000000     3.610000000
O    -2.603000000    -4.605000000    -2.569000000
H    -2.684000000    -5.527000000    -2.813000000
H    -3.310000000    -4.168000000    -3.045000000
O     0.384000000     3.107000000    -7.765000000
H    -0.135000000     2.902000000    -6.987000000
H     0.180000000     4.023000000    -7.953000000
O     2.947000000    -2.053000000     7.621000000
H     2.055000000    -2.217000000     7.927000000
H     2.840000000    -1.475000000     6.866000000
O     2.884000000     0.946000000     5.118000000
H     3.520000000     0.742000000     5.804000000
H     3.416000000     1.104000000     4.337000000
O     5.340000000     0.996000000     0.373000000
H     4.488000000     1.427000000     0.299000000
H     5.131000000     0.071000000     0.500000000
O     0.224000000     0.042000000     5.735000000
H     0.123000000    -0.795000000     6.189000000
H     1.171000000     0.172000000     5.681000000
O     0.073000000    -3.248000000    -4.980000000
H     0.771000000    -3.664000000    -4.474000000
H    -0.635000000    -3.893000000    -4.986000000
