158
-3027.17286
C    -0.655000000    -1.000000000    -0.952000000
H    -0.983000000    -1.723000000    -1.694000000
C     0.195000000    -1.335000000     0.058000000
H     0.722000000    -2.279000000    -0.057000000
C     0.692000000    -0.343000000     0.967000000
H     1.375000000    -0.677000000     1.680000000
C     0.335000000     0.996000000     0.875000000
H     0.767000000     1.714000000     1.567000000
C    -0.636000000     1.373000000    -0.058000000
H    -0.957000000     2.411000000    -0.108000000
C    -1.127000000     0.411000000    -0.967000000
C    -2.046000000     0.917000000    -2.079000000
O    -2.457000000     0.144000000    -2.929000000
O    -2.463000000     2.088000000    -2.060000000
O     1.270000000     4.434000000     0.748000000
H     1.299000000     3.888000000    -0.038000000
H     1.472000000     5.316000000     0.434000000
O    -5.313000000     2.718000000    -2.306000000
H    -4.476000000     2.341000000    -2.577000000
H    -5.791000000     2.854000000    -3.124000000
O     1.102000000     3.652000000    -2.114000000
H     1.317000000     2.721000000    -2.172000000
H     0.235000000     3.722000000    -2.513000000
O    -1.261000000     0.868000000     6.327000000
H    -0.934000000     0.621000000     5.462000000
H    -1.699000000     1.707000000     6.187000000
O    -6.762000000    -0.119000000    -5.165000000
H    -6.583000000    -0.679000000    -4.410000000
H    -5.905000000     0.017000000    -5.571000000
O     4.871000000    -1.941000000     1.997000000
H     4.056000000    -1.443000000     1.938000000
H     5.381000000    -1.488000000     2.668000000
O     6.133000000    -4.198000000     1.157000000
H     5.595000000    -3.532000000     1.585000000
H     6.710000000    -3.701000000     0.576000000
O     2.410000000    -1.137000000    -2.369000000
H     2.285000000    -1.852000000    -2.993000000
H     3.206000000    -1.372000000    -1.892000000
O     1.299000000     1.165000000    -3.683000000
H     1.460000000     0.270000000    -3.384000000
H     0.648000000     1.071000000    -4.379000000
O    -5.048000000    -2.298000000    -0.475000000
H    -5.059000000    -1.375000000    -0.220000000
H    -4.219000000    -2.632000000    -0.131000000
O    -3.849000000     1.057000000    -5.201000000
H    -3.267000000     0.832000000    -4.475000000
H    -4.250000000     1.885000000    -4.938000000
O     2.048000000     6.125000000    -2.848000000
H     2.962000000     5.896000000    -3.018000000
H     1.656000000     5.317000000    -2.516000000
O     0.369000000    -4.653000000    -2.091000000
H     1.116000000    -5.251000000    -2.074000000
H     0.110000000    -4.568000000    -1.173000000
O    -0.716000000    -0.597000000    -4.767000000
H    -1.436000000    -0.375000000    -4.176000000
H    -1.020000000    -1.376000000    -5.232000000
O     3.980000000     0.261000000     3.535000000
H     3.464000000     0.900000000     4.027000000
H     4.868000000     0.353000000     3.880000000
O     1.433000000    -3.088000000    -4.195000000
H     1.000000000    -3.597000000    -3.510000000
H     2.000000000    -3.718000000    -4.640000000
O    -2.621000000    -1.294000000     1.326000000
H    -2.712000000    -0.431000000     1.729000000
H    -1.937000000    -1.180000000     0.666000000
O    -5.118000000    -0.416000000    -2.712000000
H    -4.214000000    -0.158000000    -2.895000000
H    -5.191000000    -0.376000000    -1.759000000
O    -4.579000000    -3.293000000    -3.457000000
H    -3.634000000    -3.439000000    -3.509000000
H    -4.666000000    -2.425000000    -3.062000000
O    -3.680000000     3.673000000     0.069000000
H    -3.098000000     3.005000000    -0.294000000
H    -3.588000000     4.418000000    -0.524000000
O    -0.342000000    -2.520000000     5.369000000
H    -0.564000000    -3.188000000     4.720000000
H    -0.978000000    -2.649000000     6.073000000
O    -3.274000000     6.451000000    -3.230000000
H    -2.809000000     6.719000000    -4.023000000
H    -4.175000000     6.741000000    -3.372000000
O    -7.465000000     0.994000000    -0.113000000
H    -6.532000000     1.191000000    -0.031000000
H    -7.846000000     1.291000000     0.714000000
O    -4.836000000     0.514000000    -0.039000000
H    -4.528000000     0.645000000     0.858000000
H    -4.538000000     1.292000000    -0.511000000
O    -3.490000000     4.548000000    -5.798000000
H    -4.235000000     4.050000000    -5.460000000
H    -3.685000000     4.671000000    -6.727000000
O    -3.593000000     0.867000000     2.405000000
H    -2.869000000     1.392000000     2.745000000
H    -4.047000000     0.550000000     3.186000000
O     4.407000000    -2.162000000    -0.985000000
H     4.552000000    -2.595000000    -1.827000000
H     4.490000000    -2.863000000    -0.338000000
O    -1.241000000    -3.161000000     2.551000000
H    -1.687000000    -2.468000000     2.063000000
H    -1.649000000    -3.970000000     2.244000000
O    -3.038000000     6.480000000    -0.710000000
H    -3.043000000     6.400000000    -1.663000000
H    -3.495000000     7.303000000    -0.536000000
O    -1.193000000     4.161000000    -3.159000000
H    -1.714000000     4.841000000    -3.586000000
H    -1.839000000     3.549000000    -2.808000000
O     0.536000000     2.849000000     4.620000000
H     0.037000000     2.666000000     3.824000000
H    -0.068000000     3.346000000     5.172000000
O     2.933000000     5.946000000     3.003000000
H     2.526000000     5.793000000     3.856000000
H     2.294000000     5.617000000     2.371000000
O     2.279000000    -4.703000000     2.847000000
H     1.900000000    -4.967000000     3.686000000
H     2.194000000    -3.750000000     2.836000000
O    -2.392000000     0.079000000    -7.491000000
H    -2.666000000     0.295000000    -6.599000000
H    -2.752000000     0.784000000    -8.029000000
O     0.280000000    -4.717000000     0.743000000
H     0.941000000    -5.268000000     1.162000000
H     0.222000000    -3.944000000     1.305000000
O     2.888000000     1.477000000     5.791000000
H     2.979000000     1.484000000     6.744000000
H     2.021000000     1.852000000     5.631000000
O    -5.229000000     3.618000000     2.033000000
H    -4.470000000     3.563000000     1.452000000
H    -5.187000000     2.818000000     2.557000000
O    -6.505000000     4.505000000    -0.381000000
H    -6.150000000     3.964000000    -1.087000000
H    -5.901000000     4.372000000     0.350000000
O    -1.217000000     6.609000000     1.397000000
H    -0.574000000     6.703000000     0.693000000
H    -2.021000000     6.338000000     0.953000000
O     5.589000000     0.173000000    -0.260000000
H     5.460000000    -0.774000000    -0.307000000
H     4.707000000     0.531000000    -0.158000000
O    -1.590000000    -6.014000000    -4.100000000
H    -1.302000000    -6.072000000    -5.011000000
H    -0.882000000    -5.551000000    -3.653000000
O     1.827000000    -2.292000000     3.677000000
H     1.144000000    -2.158000000     4.334000000
H     2.531000000    -1.699000000     3.937000000
O    -1.369000000    -6.778000000    -0.451000000
H    -0.978000000    -6.033000000     0.006000000
H    -1.997000000    -6.385000000    -1.056000000
O    -0.937000000     3.896000000     2.444000000
H    -0.144000000     3.996000000     1.919000000
H    -1.373000000     4.746000000     2.386000000
O     3.197000000     1.131000000    -0.595000000
H     2.662000000     1.597000000     0.048000000
H     2.655000000     0.390000000    -0.865000000
O    -0.779000000    -0.164000000     3.916000000
H    -0.880000000    -1.005000000     4.362000000
H    -0.306000000    -0.375000000     3.111000000
O    -0.733000000    -3.098000000    -5.876000000
H     0.057000000    -3.137000000    -5.336000000
H    -0.423000000    -3.261000000    -6.766000000
O     6.494000000     2.797000000    -0.166000000
H     6.003000000     3.027000000    -0.955000000
H     6.321000000     1.864000000    -0.040000000
