158
-3031.27680
C    -0.644000000    -0.526000000    -1.255000000
H    -0.900000000    -0.938000000    -2.228000000
C     0.514000000    -1.002000000    -0.692000000
H     1.037000000    -1.802000000    -1.210000000
C     0.968000000    -0.550000000     0.554000000
H     1.801000000    -1.033000000     1.043000000
C     0.252000000     0.467000000     1.182000000
H     0.548000000     0.881000000     2.143000000
C    -0.889000000     1.112000000     0.551000000
H    -1.211000000     2.071000000     0.949000000
C    -1.299000000     0.623000000    -0.742000000
C    -2.479000000     1.302000000    -1.342000000
O    -2.933000000     0.764000000    -2.307000000
O    -2.863000000     2.390000000    -0.948000000
O    -3.884000000    -1.943000000    -5.191000000
H    -3.547000000    -1.109000000    -5.518000000
H    -3.583000000    -1.984000000    -4.283000000
O    -3.172000000     4.311000000     0.937000000
H    -3.062000000     3.548000000     0.369000000
H    -3.249000000     5.050000000     0.333000000
O     1.749000000     3.910000000     0.183000000
H     1.012000000     4.445000000    -0.111000000
H     1.806000000     4.077000000     1.124000000
O    -1.069000000     1.146000000     6.569000000
H    -0.190000000     0.869000000     6.827000000
H    -1.211000000     0.730000000     5.719000000
O    -6.181000000     4.421000000    -3.620000000
H    -6.367000000     4.592000000    -4.543000000
H    -5.404000000     3.862000000    -3.633000000
O    -6.606000000     1.141000000    -5.690000000
H    -5.829000000     1.442000000    -5.219000000
H    -6.270000000     0.818000000    -6.526000000
O     2.678000000    -1.457000000     6.692000000
H     1.974000000    -1.530000000     6.048000000
H     3.378000000    -0.996000000     6.230000000
O     1.579000000    -6.351000000     1.060000000
H     1.565000000    -5.777000000     0.294000000
H     1.704000000    -5.758000000     1.802000000
O     3.234000000    -2.655000000    -3.852000000
H     2.341000000    -2.505000000    -4.161000000
H     3.162000000    -2.651000000    -2.898000000
O    -3.629000000     6.617000000    -0.487000000
H    -3.599000000     6.458000000    -1.431000000
H    -3.946000000     7.517000000    -0.406000000
O     0.835000000     2.978000000    -4.232000000
H     0.420000000     3.806000000    -3.990000000
H     1.184000000     2.635000000    -3.410000000
O    -4.164000000     2.752000000    -3.752000000
H    -3.853000000     1.996000000    -3.253000000
H    -3.479000000     2.906000000    -4.403000000
O     2.893000000    -5.407000000    -2.165000000
H     2.127000000    -5.350000000    -2.735000000
H     3.091000000    -4.498000000    -1.938000000
O    -1.196000000     0.651000000    -4.621000000
H    -1.026000000     1.525000000    -4.970000000
H    -1.777000000     0.800000000    -3.875000000
O     4.670000000     0.923000000     1.657000000
H     4.064000000     1.015000000     2.393000000
H     5.491000000     0.637000000     2.057000000
O     3.222000000    -2.745000000    -1.208000000
H     3.120000000    -2.972000000    -0.284000000
H     3.858000000    -2.029000000    -1.210000000
O     2.997000000    -4.874000000     3.963000000
H     3.902000000    -4.753000000     4.249000000
H     2.551000000    -5.242000000     4.726000000
O    -5.206000000     1.589000000     3.798000000
H    -4.279000000     1.597000000     3.559000000
H    -5.217000000     1.832000000     4.724000000
O     0.998000000    -1.624000000    -4.961000000
H     0.554000000    -2.370000000    -5.365000000
H     0.340000000    -0.929000000    -4.956000000
O     2.091000000     3.214000000     5.700000000
H     2.038000000     4.168000000     5.738000000
H     2.211000000     2.944000000     6.610000000
O    -7.099000000    -0.265000000    -1.653000000
H    -7.429000000    -0.482000000    -2.525000000
H    -7.866000000    -0.327000000    -1.084000000
O    -3.518000000     0.145000000     1.918000000
H    -4.227000000     0.465000000     1.360000000
H    -3.153000000     0.935000000     2.318000000
O    -3.542000000    -2.063000000    -2.637000000
H    -3.411000000    -1.139000000    -2.426000000
H    -3.661000000    -2.488000000    -1.788000000
O    -1.231000000     5.767000000     2.486000000
H    -1.699000000     6.593000000     2.368000000
H    -1.678000000     5.153000000     1.904000000
O    -1.826000000    -2.135000000     1.315000000
H    -1.177000000    -1.489000000     1.035000000
H    -2.532000000    -1.615000000     1.698000000
O    -0.223000000    -3.464000000     3.517000000
H    -0.268000000    -3.282000000     2.578000000
H    -1.106000000    -3.754000000     3.747000000
O    -5.344000000     1.567000000     0.128000000
H    -4.873000000     2.204000000    -0.409000000
H    -5.910000000     1.105000000    -0.491000000
O    -2.110000000     3.850000000    -5.325000000
H    -2.085000000     4.785000000    -5.526000000
H    -2.330000000     3.432000000    -6.158000000
O     5.144000000    -0.574000000    -4.091000000
H     5.022000000     0.066000000    -3.390000000
H     4.520000000    -1.271000000    -3.891000000
O    -6.752000000     3.009000000     1.904000000
H    -6.552000000     2.523000000     2.703000000
H    -6.307000000     2.523000000     1.210000000
O     1.437000000     2.073000000    -1.818000000
H     1.516000000     2.910000000    -1.361000000
H     1.082000000     1.474000000    -1.161000000
O     0.199000000     5.681000000    -1.149000000
H    -0.081000000     6.568000000    -0.924000000
H    -0.477000000     5.360000000    -1.746000000
O    -0.692000000     3.529000000     5.012000000
H    -0.990000000     2.842000000     5.608000000
H     0.174000000     3.772000000     5.339000000
O     0.813000000    -1.248000000     4.823000000
H     0.669000000    -2.171000000     4.613000000
H     0.346000000    -0.771000000     4.137000000
O    -3.473000000    -3.379000000    -0.324000000
H    -4.283000000    -3.377000000     0.187000000
H    -2.841000000    -2.918000000     0.226000000
O     2.683000000     1.316000000     3.786000000
H     2.463000000     1.881000000     4.527000000
H     2.417000000     0.440000000     4.066000000
O    -1.816000000     4.350000000    -2.620000000
H    -2.268000000     3.724000000    -2.055000000
H    -1.905000000     3.986000000    -3.501000000
O     5.886000000     1.372000000    -2.110000000
H     6.832000000     1.521000000    -2.091000000
H     5.530000000     2.017000000    -1.499000000
O    -1.199000000    -3.719000000    -4.468000000
H    -1.926000000    -4.115000000    -3.987000000
H    -0.417000000    -4.131000000    -4.102000000
O    -1.762000000     0.121000000     4.164000000
H    -2.171000000    -0.517000000     3.579000000
H    -2.048000000     0.971000000     3.829000000
O     5.552000000    -4.142000000    -1.945000000
H     4.934000000    -3.643000000    -1.410000000
H     6.413000000    -3.903000000    -1.602000000
O     3.290000000    -3.398000000     1.444000000
H     3.980000000    -4.041000000     1.605000000
H     2.828000000    -3.328000000     2.279000000
O     1.173000000     4.460000000     2.713000000
H     0.264000000     4.752000000     2.635000000
H     1.198000000     3.973000000     3.537000000
O    -3.363000000     6.584000000    -3.161000000
H    -2.673000000     5.922000000    -3.137000000
H    -3.745000000     6.500000000    -4.035000000
O     4.796000000    -0.686000000    -0.596000000
H     4.968000000    -0.487000000     0.324000000
H     4.849000000     0.162000000    -1.038000000
O    -2.609000000     2.571000000     3.207000000
H    -2.597000000     3.087000000     2.401000000
H    -2.240000000     3.154000000     3.870000000
O     4.315000000     2.661000000    -0.381000000
H     4.453000000     1.983000000     0.280000000
H     3.377000000     2.847000000    -0.340000000
O     1.790000000     1.259000000    -6.003000000
H     1.109000000     0.590000000    -6.081000000
H     1.480000000     1.835000000    -5.304000000
