158
-3023.65202
C    -0.872000000    -1.035000000    -0.647000000
H    -1.445000000    -1.787000000    -1.183000000
C     0.413000000    -1.237000000    -0.166000000
H     0.890000000    -2.209000000    -0.266000000
C     1.124000000    -0.243000000     0.462000000
H     2.137000000    -0.461000000     0.817000000
C     0.583000000     1.016000000     0.612000000
H     1.140000000     1.866000000     0.997000000
C    -0.699000000     1.264000000     0.073000000
H    -1.079000000     2.283000000     0.077000000
C    -1.466000000     0.255000000    -0.524000000
C    -2.822000000     0.500000000    -1.163000000
O    -3.146000000    -0.291000000    -2.033000000
O    -3.408000000     1.571000000    -1.094000000
O    -3.094000000    -3.436000000     3.695000000
H    -2.780000000    -3.280000000     2.804000000
H    -3.022000000    -2.585000000     4.126000000
O    -2.189000000     3.440000000    -3.123000000
H    -2.725000000     4.220000000    -3.264000000
H    -2.751000000     2.851000000    -2.620000000
O     4.618000000     3.829000000    -1.580000000
H     4.447000000     3.696000000    -0.648000000
H     3.753000000     3.806000000    -1.989000000
O     4.536000000     3.454000000     0.941000000
H     5.257000000     3.758000000     1.493000000
H     3.835000000     3.242000000     1.558000000
O     1.084000000     5.700000000     3.279000000
H     0.599000000     5.427000000     2.499000000
H     0.936000000     4.996000000     3.910000000
O     0.966000000    -3.768000000    -2.638000000
H     1.509000000    -4.540000000    -2.796000000
H     1.589000000    -3.079000000    -2.408000000
O     5.141000000    -2.636000000     0.816000000
H     5.002000000    -3.173000000     0.036000000
H     5.583000000    -3.219000000     1.433000000
O     1.065000000     0.336000000    -2.472000000
H     0.943000000    -0.115000000    -1.636000000
H     0.278000000     0.127000000    -2.974000000
O    -4.696000000     1.260000000    -3.742000000
H    -5.635000000     1.109000000    -3.636000000
H    -4.283000000     0.622000000    -3.160000000
O     2.272000000    -6.585000000    -1.048000000
H     2.863000000    -7.317000000    -1.227000000
H     2.448000000    -5.958000000    -1.750000000
O    -1.367000000     1.589000000     4.580000000
H    -0.568000000     1.272000000     4.160000000
H    -1.130000000     2.448000000     4.930000000
O    -1.382000000    -0.673000000    -3.816000000
H    -2.156000000    -0.753000000    -3.258000000
H    -1.164000000    -1.574000000    -4.053000000
O     1.366000000     0.536000000     4.783000000
H     1.967000000    -0.133000000     4.454000000
H     1.746000000     0.809000000     5.619000000
O     3.790000000    -0.261000000    -2.972000000
H     4.196000000     0.311000000    -2.321000000
H     2.849000000    -0.134000000    -2.850000000
O     1.248000000    -2.687000000     4.838000000
H     0.709000000    -2.647000000     4.048000000
H     2.113000000    -2.390000000     4.553000000
O     6.356000000     1.659000000     4.039000000
H     6.029000000     1.860000000     4.915000000
H     6.203000000     0.720000000     3.935000000
O    -7.068000000    -0.488000000    -2.764000000
H    -7.050000000     0.091000000    -2.003000000
H    -8.000000000    -0.637000000    -2.929000000
O     5.849000000    -1.050000000     5.121000000
H     6.774000000    -0.812000000     5.192000000
H     5.768000000    -1.852000000     5.637000000
O    -3.525000000     1.259000000     2.809000000
H    -2.733000000     1.576000000     3.243000000
H    -3.663000000     1.871000000     2.086000000
O    -3.490000000    -0.396000000    -5.929000000
H    -2.885000000    -0.307000000    -5.193000000
H    -4.290000000     0.039000000    -5.636000000
O     0.328000000     6.026000000    -1.203000000
H     0.532000000     5.119000000    -1.432000000
H     1.126000000     6.511000000    -1.413000000
O    -3.525000000    -1.166000000     1.351000000
H    -3.375000000    -0.399000000     1.904000000
H    -4.475000000    -1.194000000     1.233000000
O    -3.898000000    -4.373000000    -0.929000000
H    -3.757000000    -5.026000000    -1.614000000
H    -4.297000000    -3.631000000    -1.383000000
O    -2.227000000    -3.443000000     0.987000000
H    -2.771000000    -4.011000000     0.442000000
H    -2.616000000    -2.573000000     0.890000000
O    -6.170000000     1.240000000    -0.900000000
H    -6.505000000     2.022000000    -0.463000000
H    -5.222000000     1.278000000    -0.767000000
O    -4.223000000     3.160000000    -6.036000000
H    -3.630000000     3.893000000    -5.872000000
H    -3.926000000     2.474000000    -5.439000000
O     6.792000000    -1.749000000    -0.977000000
H     7.580000000    -1.793000000    -0.435000000
H     6.079000000    -1.609000000    -0.353000000
O    -6.626000000     3.639000000     0.706000000
H    -7.543000000     3.740000000     0.963000000
H    -6.141000000     3.677000000     1.530000000
O    -5.074000000    -3.657000000    -4.478000000
H    -6.015000000    -3.832000000    -4.455000000
H    -4.927000000    -3.040000000    -3.762000000
O    -6.368000000    -1.084000000     0.793000000
H    -6.715000000    -1.753000000     0.202000000
H    -6.614000000    -0.254000000     0.384000000
O    -0.542000000     1.965000000    -4.699000000
H    -1.285000000     2.478000000    -4.381000000
H    -0.808000000     1.054000000    -4.570000000
O     0.503000000     3.599000000     4.958000000
H     0.773000000     3.864000000     5.837000000
H     0.868000000     2.721000000     4.850000000
O     7.757000000    -0.589000000     2.850000000
H     7.385000000     0.076000000     2.272000000
H     8.535000000    -0.900000000     2.388000000
O     0.251000000    -2.788000000     2.335000000
H     0.424000000    -1.931000000     1.944000000
H    -0.566000000    -3.076000000     1.929000000
O     7.109000000     1.372000000     1.239000000
H     6.281000000     1.742000000     0.934000000
H     7.776000000     1.980000000     0.921000000
O    -4.955000000    -2.115000000    -2.235000000
H    -4.195000000    -1.592000000    -1.980000000
H    -5.693000000    -1.509000000    -2.177000000
O    -0.597000000     4.904000000     1.182000000
H    -0.274000000     5.290000000     0.368000000
H    -0.927000000     4.043000000     0.925000000
O    -2.658000000     4.809000000     3.388000000
H    -1.805000000     5.155000000     3.124000000
H    -2.908000000     4.220000000     2.675000000
O    -0.135000000    -5.670000000    -0.045000000
H    -0.006000000    -4.723000000     0.001000000
H     0.641000000    -5.996000000    -0.503000000
O    -0.387000000    -3.097000000    -4.832000000
H     0.098000000    -3.453000000    -4.088000000
H    -0.822000000    -3.856000000    -5.220000000
O     5.271000000    -2.541000000    -3.299000000
H     4.725000000    -1.785000000    -3.514000000
H     5.836000000    -2.235000000    -2.590000000
O     2.206000000    -4.916000000     2.201000000
H     3.051000000    -4.950000000     2.650000000
H     1.851000000    -4.056000000     2.423000000
O    -3.488000000     6.215000000     0.011000000
H    -4.030000000     6.941000000    -0.299000000
H    -2.729000000     6.638000000     0.413000000
O     0.955000000     3.472000000    -1.687000000
H     1.559000000     3.412000000    -2.427000000
H     0.185000000     2.976000000    -1.966000000
O    -3.523000000     3.320000000     1.010000000
H    -3.507000000     2.744000000     0.246000000
H    -3.730000000     4.184000000     0.654000000
O    -6.635000000     4.740000000    -1.651000000
H    -6.705000000     4.426000000    -0.749000000
H    -5.746000000     4.506000000    -1.917000000
O     3.331000000    -1.108000000     3.753000000
H     3.499000000    -1.666000000     2.993000000
H     4.154000000    -1.113000000     4.240000000
O     3.453000000     3.052000000     3.263000000
H     3.193000000     2.854000000     4.163000000
H     4.012000000     3.825000000     3.340000000
