158
-3056.64168
C     0.156000000     0.436000000     1.355000000
H     0.601000000     0.679000000     2.316000000
C     0.807000000     0.961000000     0.254000000
H     1.630000000     1.672000000     0.264000000
C     0.495000000     0.495000000    -1.001000000
H     1.042000000     0.941000000    -1.850000000
C    -0.560000000    -0.383000000    -1.165000000
H    -0.901000000    -0.710000000    -2.144000000
C    -1.175000000    -0.901000000    -0.061000000
H    -1.957000000    -1.655000000    -0.088000000
C    -0.761000000    -0.550000000     1.244000000
C    -1.251000000    -1.248000000     2.545000000
O    -2.150000000    -2.103000000     2.433000000
O    -0.675000000    -1.031000000     3.570000000
O     0.020000000    -1.216000000    -5.637000000
H     0.707000000    -1.675000000    -5.153000000
H    -0.368000000    -0.620000000    -4.996000000
O     3.868000000     3.091000000     0.909000000
H     4.594000000     3.703000000     1.026000000
H     3.543000000     3.271000000     0.027000000
O    -3.173000000     1.844000000     5.617000000
H    -2.676000000     2.232000000     4.897000000
H    -3.333000000     0.942000000     5.340000000
O     1.876000000     3.460000000     3.334000000
H     2.655000000     2.918000000     3.458000000
H     1.952000000     3.786000000     2.437000000
O     0.000000000     0.664000000     5.415000000
H    -0.096000000    -0.058000000     4.795000000
H    -0.583000000     1.346000000     5.081000000
O    -5.347000000    -0.939000000    -1.547000000
H    -4.600000000    -0.653000000    -2.073000000
H    -5.003000000    -0.999000000    -0.656000000
O    -3.729000000    -4.214000000     3.120000000
H    -3.089000000    -3.540000000     2.890000000
H    -3.558000000    -4.926000000     2.505000000
O    -1.933000000    -4.229000000    -1.069000000
H    -1.480000000    -4.326000000    -0.232000000
H    -2.813000000    -3.936000000    -0.832000000
O    -0.301000000    -4.052000000     1.306000000
H    -1.043000000    -3.517000000     1.589000000
H    -0.146000000    -4.652000000     2.035000000
O    -0.703000000    -0.293000000    -7.995000000
H    -1.433000000    -0.910000000    -8.041000000
H    -0.263000000    -0.502000000    -7.171000000
O     2.647000000     0.912000000     6.426000000
H     1.751000000     0.687000000     6.176000000
H     2.547000000     1.479000000     7.191000000
O     6.490000000    -2.489000000    -1.082000000
H     6.044000000    -1.828000000    -1.611000000
H     7.234000000    -2.027000000    -0.698000000
O     3.980000000    -1.060000000    -3.904000000
H     4.163000000    -1.945000000    -3.589000000
H     3.109000000    -1.121000000    -4.296000000
O    -5.566000000    -0.294000000     2.736000000
H    -6.518000000    -0.395000000     2.708000000
H    -5.337000000    -0.435000000     3.654000000
O    -2.691000000     2.006000000    -1.870000000
H    -2.062000000     1.548000000    -1.312000000
H    -2.621000000     1.569000000    -2.719000000
O     5.535000000     0.531000000    -5.524000000
H     5.852000000    -0.015000000    -6.243000000
H     4.824000000     0.023000000    -5.133000000
O    -0.620000000    -5.213000000     3.935000000
H    -0.356000000    -4.548000000     4.570000000
H    -0.031000000    -5.950000000     4.101000000
O    -4.635000000    -3.227000000     5.448000000
H    -4.375000000    -3.797000000     4.724000000
H    -3.985000000    -3.395000000     6.131000000
O     4.594000000     5.238000000    -1.571000000
H     3.920000000     4.560000000    -1.525000000
H     5.288000000     4.926000000    -0.991000000
O     0.183000000     3.903000000    -3.057000000
H     0.152000000     3.675000000    -3.986000000
H     0.076000000     4.854000000    -3.040000000
O    -1.188000000    -2.959000000    -3.616000000
H    -1.524000000    -3.226000000    -4.472000000
H    -1.313000000    -3.728000000    -3.060000000
O    -0.983000000     2.758000000     3.865000000
H    -0.084000000     2.611000000     3.572000000
H    -1.291000000     3.494000000     3.337000000
O    -1.104000000     4.132000000     1.231000000
H    -1.026000000     3.320000000     0.730000000
H    -1.995000000     4.435000000     1.058000000
O     2.833000000    -1.565000000     0.349000000
H     2.203000000    -0.845000000     0.307000000
H     2.348000000    -2.326000000     0.029000000
O    -3.241000000    -0.987000000    -3.325000000
H    -3.259000000    -0.405000000    -4.085000000
H    -2.493000000    -1.563000000    -3.483000000
O    -2.804000000    -7.202000000     3.520000000
H    -2.273000000    -6.444000000     3.767000000
H    -3.085000000    -7.578000000     4.354000000
O     0.212000000     6.362000000     0.341000000
H    -0.193000000     5.593000000     0.742000000
H     0.887000000     6.630000000     0.966000000
O     2.937000000     1.286000000    -6.940000000
H     2.062000000     0.995000000    -7.197000000
H     3.516000000     0.574000000    -7.212000000
O    -3.913000000    -5.635000000     0.733000000
H    -3.653000000    -6.549000000     0.620000000
H    -4.517000000    -5.467000000     0.009000000
O    -0.373000000    -0.747000000     8.053000000
H    -0.175000000    -0.539000000     7.140000000
H     0.476000000    -0.958000000     8.440000000
O    -4.453000000    -1.782000000     0.946000000
H    -4.801000000    -1.139000000     1.563000000
H    -3.820000000    -2.287000000     1.458000000
O    -5.035000000    -4.562000000    -1.553000000
H    -5.097000000    -4.196000000    -2.436000000
H    -5.229000000    -3.825000000    -0.974000000
O    -3.378000000    -0.796000000     5.149000000
H    -2.638000000    -1.027000000     4.588000000
H    -3.743000000    -1.638000000     5.423000000
O     1.376000000    -2.005000000    -3.303000000
H     1.693000000    -1.915000000    -2.405000000
H     0.456000000    -2.251000000    -3.209000000
O     2.597000000    -1.879000000     5.344000000
H     2.853000000    -2.532000000     5.995000000
H     3.426000000    -1.514000000     5.033000000
O    -0.084000000    -2.949000000     5.358000000
H     0.824000000    -2.799000000     5.623000000
H    -0.279000000    -2.232000000     4.754000000
O    -2.301000000    -4.302000000     6.476000000
H    -2.374000000    -4.885000000     5.720000000
H    -1.669000000    -3.636000000     6.205000000
O    -7.406000000    -3.231000000     2.374000000
H    -7.699000000    -4.139000000     2.451000000
H    -6.551000000    -3.218000000     2.804000000
O     2.612000000     3.350000000    -1.886000000
H     2.813000000     2.872000000    -2.691000000
H     1.695000000     3.606000000    -1.983000000
O     3.308000000    -3.217000000     2.785000000
H     3.343000000    -2.608000000     2.047000000
H     3.005000000    -2.684000000     3.520000000
O     0.687000000     3.577000000    -5.693000000
H    -0.161000000     3.678000000    -6.125000000
H     1.170000000     4.371000000    -5.924000000
O     2.494000000     1.732000000    -4.248000000
H     1.762000000     2.348000000    -4.299000000
H     2.625000000     1.441000000    -5.151000000
O    -0.890000000     1.041000000    -4.191000000
H    -0.289000000     1.504000000    -3.607000000
H    -1.130000000     1.692000000    -4.851000000
O     5.746000000     0.223000000    -2.369000000
H     6.325000000     0.678000000    -2.980000000
H     4.965000000     0.020000000    -2.884000000
O     4.904000000     0.104000000     2.048000000
H     5.723000000     0.473000000     1.716000000
H     4.451000000    -0.214000000     1.267000000
O     1.402000000    -3.712000000    -0.677000000
H     1.881000000    -4.470000000    -0.341000000
H     0.617000000    -3.663000000    -0.131000000
O     4.169000000     2.031000000     3.929000000
H     4.397000000     1.560000000     3.128000000
H     3.597000000     1.429000000     4.406000000
O     1.150000000    -4.905000000    -3.781000000
H     1.346000000    -5.655000000    -3.219000000
H     1.065000000    -4.168000000    -3.176000000
