158
-3015.22641
C    -0.396000000    -0.032000000    -1.397000000
H    -0.693000000    -0.147000000    -2.437000000
C    -1.191000000    -0.419000000    -0.392000000
H    -2.195000000    -0.757000000    -0.635000000
C    -0.753000000    -0.318000000     0.972000000
H    -1.416000000    -0.666000000     1.794000000
C     0.570000000     0.244000000     1.187000000
H     1.019000000     0.265000000     2.177000000
C     1.374000000     0.600000000     0.138000000
H     2.412000000     0.849000000     0.339000000
C     0.893000000     0.527000000    -1.193000000
C     1.764000000     0.864000000    -2.350000000
O     1.614000000     0.416000000    -3.496000000
O     2.706000000     1.600000000    -2.189000000
O    -3.331000000    -2.651000000     0.733000000
H    -2.644000000    -3.270000000     0.484000000
H    -3.202000000    -2.516000000     1.672000000
O     2.841000000     3.579000000     2.114000000
H     2.804000000     3.706000000     1.166000000
H     1.958000000     3.296000000     2.352000000
O    -4.249000000    -5.593000000     0.345000000
H    -3.381000000    -5.214000000     0.480000000
H    -4.393000000    -5.533000000    -0.599000000
O    -4.133000000     0.291000000     2.569000000
H    -4.733000000     0.477000000     3.291000000
H    -4.690000000     0.282000000     1.790000000
O    -0.524000000     1.191000000    -4.918000000
H     0.260000000     1.125000000    -4.372000000
H    -1.237000000     1.332000000    -4.295000000
O     2.351000000    -1.907000000     5.975000000
H     2.951000000    -2.098000000     5.254000000
H     1.601000000    -1.484000000     5.557000000
O    -5.698000000     0.389000000     4.836000000
H    -6.308000000     1.032000000     5.198000000
H    -5.917000000    -0.428000000     5.283000000
O     1.826000000     3.745000000    -0.702000000
H     2.347000000     3.110000000    -1.193000000
H     0.964000000     3.720000000    -1.117000000
O    -1.896000000    -2.443000000    -3.707000000
H    -1.053000000    -2.112000000    -4.015000000
H    -1.670000000    -3.091000000    -3.040000000
O    -0.039000000     0.795000000    -7.710000000
H     0.705000000     1.396000000    -7.729000000
H    -0.236000000     0.687000000    -6.779000000
O     5.836000000     4.170000000     2.021000000
H     4.912000000     3.955000000     2.143000000
H     5.968000000     4.964000000     2.540000000
O    -4.151000000    -0.765000000    -4.308000000
H    -3.490000000    -1.421000000    -4.089000000
H    -3.746000000     0.070000000    -4.075000000
O    -4.933000000     3.402000000    -1.640000000
H    -4.238000000     4.056000000    -1.577000000
H    -4.521000000     2.586000000    -1.356000000
O     1.825000000     6.500000000     0.221000000
H     1.106000000     6.679000000     0.827000000
H     1.678000000     5.598000000    -0.064000000
O    -1.672000000    -5.294000000     4.738000000
H    -2.034000000    -5.067000000     5.595000000
H    -2.427000000    -5.586000000     4.228000000
O    -2.073000000     4.159000000    -5.127000000
H    -1.347000000     4.781000000    -5.079000000
H    -1.652000000     3.309000000    -5.253000000
O     4.555000000    -1.986000000     4.258000000
H     5.461000000    -2.268000000     4.379000000
H     4.379000000    -2.137000000     3.329000000
O     0.169000000    -0.455000000     5.514000000
H    -0.385000000     0.297000000     5.301000000
H    -0.359000000    -1.216000000     5.274000000
O    -2.686000000     1.867000000    -3.435000000
H    -2.379000000     2.771000000    -3.361000000
H    -2.993000000     1.646000000    -2.555000000
O     2.718000000    -1.140000000    -7.031000000
H     2.750000000    -0.529000000    -6.294000000
H     1.964000000    -1.699000000    -6.845000000
O    -3.320000000     1.742000000    -0.453000000
H    -2.537000000     2.263000000    -0.276000000
H    -3.205000000     0.950000000     0.072000000
O    -1.049000000     4.326000000    -1.221000000
H    -1.217000000     5.020000000    -1.859000000
H    -1.049000000     4.774000000    -0.375000000
O     2.612000000    -3.169000000    -2.915000000
H     1.886000000    -3.178000000    -2.291000000
H     2.953000000    -4.064000000    -2.897000000
O     0.133000000    -4.243000000     2.613000000
H    -0.429000000    -4.731000000     3.215000000
H     1.023000000    -4.464000000     2.885000000
O    -6.002000000    -0.074000000     0.270000000
H    -6.480000000     0.323000000    -0.457000000
H    -5.835000000    -0.972000000    -0.015000000
O    -1.329000000     1.278000000     3.730000000
H    -1.149000000     2.081000000     3.242000000
H    -2.001000000     0.831000000     3.216000000
O     5.106000000     1.338000000     4.114000000
H     5.213000000     0.442000000     3.795000000
H     4.160000000     1.448000000     4.208000000
O     1.683000000    -2.765000000     0.177000000
H     2.303000000    -2.673000000     0.901000000
H     0.982000000    -2.146000000     0.383000000
O     4.643000000    -2.194000000     1.565000000
H     4.680000000    -3.103000000     1.269000000
H     5.477000000    -1.816000000     1.284000000
O    -1.656000000    -2.732000000     5.138000000
H    -2.307000000    -2.377000000     4.532000000
H    -1.494000000    -3.621000000     4.822000000
O     4.348000000    -1.099000000    -4.181000000
H     3.988000000    -1.862000000    -3.729000000
H     3.845000000    -0.359000000    -3.838000000
O    -3.692000000    -2.047000000     3.623000000
H    -3.738000000    -1.220000000     3.142000000
H    -4.542000000    -2.461000000     3.470000000
O     2.420000000     1.037000000     4.393000000
H     1.981000000     1.379000000     3.613000000
H     1.732000000     0.573000000     4.871000000
O     2.757000000     1.774000000    -5.695000000
H     3.117000000     2.472000000    -5.147000000
H     2.275000000     1.216000000    -5.086000000
O    -2.623000000    -2.835000000    -6.477000000
H    -2.871000000    -1.967000000    -6.795000000
H    -2.448000000    -2.707000000    -5.545000000
O     5.562000000     4.693000000    -0.496000000
H     5.763000000     4.540000000     0.428000000
H     5.518000000     3.817000000    -0.879000000
O     0.856000000    -1.761000000    -4.605000000
H     1.474000000    -1.988000000    -3.910000000
H     0.859000000    -0.804000000    -4.626000000
O     5.111000000     2.358000000    -1.584000000
H     4.292000000     1.995000000    -1.921000000
H     5.256000000     1.896000000    -0.758000000
O     0.068000000     3.281000000     2.080000000
H    -0.539000000     4.017000000     2.152000000
H     0.051000000     3.046000000     1.152000000
O     4.102000000     5.518000000    -4.691000000
H     4.034000000     5.635000000    -3.743000000
H     4.529000000     6.317000000    -5.000000000
O    -6.415000000    -0.334000000    -2.609000000
H    -5.865000000    -1.109000000    -2.496000000
H    -6.032000000     0.123000000    -3.358000000
O    -1.479000000    -4.479000000     0.461000000
H    -1.067000000    -5.131000000    -0.106000000
H    -0.806000000    -4.263000000     1.106000000
O    -3.104000000     1.412000000     5.823000000
H    -3.956000000     1.165000000     5.465000000
H    -2.500000000     1.322000000     5.085000000
O     5.763000000     3.251000000    -4.103000000
H     5.480000000     3.051000000    -3.211000000
H     5.196000000     3.970000000    -4.380000000
O    -4.334000000    -5.422000000     3.723000000
H    -5.258000000    -5.460000000     3.967000000
H    -4.337000000    -5.463000000     2.767000000
O    -5.467000000    -2.714000000    -0.967000000
H    -4.584000000    -2.752000000    -0.599000000
H    -6.041000000    -2.946000000    -0.236000000
O    -0.463000000    -4.427000000    -2.639000000
H     0.128000000    -4.852000000    -2.017000000
H    -0.067000000    -4.588000000    -3.495000000
O     5.410000000     1.117000000     0.797000000
H     5.440000000     1.720000000     1.540000000
H     5.971000000     0.387000000     1.059000000
