158
-3039.84809
C    -0.490000000     0.072000000    -1.434000000
H    -0.831000000     0.113000000    -2.466000000
C    -1.223000000    -0.416000000    -0.409000000
H    -2.265000000    -0.723000000    -0.464000000
C    -0.688000000    -0.429000000     0.896000000
H    -1.385000000    -0.637000000     1.738000000
C     0.599000000    -0.028000000     1.155000000
H     1.063000000    -0.156000000     2.130000000
C     1.409000000     0.503000000     0.089000000
H     2.447000000     0.775000000     0.263000000
C     0.840000000     0.477000000    -1.225000000
C     1.665000000     1.067000000    -2.305000000
O     1.200000000     1.592000000    -3.325000000
O     2.861000000     0.988000000    -2.247000000
O     4.389000000    -1.560000000    -5.745000000
H     4.723000000    -1.196000000    -4.926000000
H     4.316000000    -2.500000000    -5.577000000
O     4.910000000     0.211000000    -3.684000000
H     4.939000000     0.914000000    -4.333000000
H     4.144000000     0.413000000    -3.146000000
O    -4.199000000    -0.011000000     1.414000000
H    -5.119000000     0.083000000     1.167000000
H    -4.086000000    -0.949000000     1.565000000
O    -2.395000000    -3.231000000    -1.333000000
H    -1.767000000    -2.724000000    -0.818000000
H    -3.083000000    -3.464000000    -0.709000000
O     5.020000000     2.660000000     1.504000000
H     4.093000000     2.725000000     1.729000000
H     5.478000000     2.768000000     2.337000000
O    -3.761000000     3.049000000    -2.304000000
H    -4.054000000     3.641000000    -1.611000000
H    -4.128000000     2.199000000    -2.064000000
O    -0.672000000     0.699000000    -5.072000000
H    -0.081000000     0.930000000    -4.355000000
H    -1.337000000     1.387000000    -5.065000000
O    -1.356000000     4.066000000    -6.311000000
H    -1.774000000     4.002000000    -7.170000000
H    -0.467000000     4.366000000    -6.499000000
O    -1.182000000    -4.050000000     6.514000000
H    -2.077000000    -4.162000000     6.836000000
H    -1.016000000    -3.110000000     6.591000000
O    -2.805000000     1.475000000     5.418000000
H    -3.648000000     1.270000000     5.013000000
H    -2.155000000     1.182000000     4.780000000
O     3.987000000     3.713000000    -2.046000000
H     4.569000000     3.472000000    -2.767000000
H     3.339000000     3.009000000    -2.016000000
O     1.402000000    -2.332000000    -5.627000000
H     2.198000000    -1.846000000    -5.409000000
H     0.865000000    -2.278000000    -4.837000000
O    -3.174000000    -2.119000000     7.202000000
H    -3.286000000    -2.049000000     6.254000000
H    -3.415000000    -1.255000000     7.536000000
O     2.975000000     5.808000000    -3.633000000
H     2.948000000     5.126000000    -2.962000000
H     3.407000000     6.547000000    -3.205000000
O     0.329000000    -5.444000000    -0.450000000
H     0.591000000    -5.693000000     0.436000000
H     0.426000000    -4.492000000    -0.469000000
O    -2.442000000    -1.622000000    -4.542000000
H    -1.998000000    -2.211000000    -3.932000000
H    -1.856000000    -0.870000000    -4.619000000
O     4.997000000     5.172000000     0.056000000
H     5.051000000     4.441000000     0.671000000
H     4.634000000     4.788000000    -0.742000000
O     7.022000000     0.307000000     1.767000000
H     7.177000000    -0.614000000     1.977000000
H     6.265000000     0.295000000     1.181000000
O     0.379000000     3.319000000     4.806000000
H     0.215000000     3.803000000     5.615000000
H     1.179000000     2.824000000     4.981000000
O     0.468000000     4.145000000    -2.861000000
H     0.816000000     3.265000000    -3.001000000
H    -0.172000000     4.041000000    -2.157000000
O     2.648000000    -3.297000000     3.403000000
H     2.338000000    -3.691000000     4.219000000
H     3.590000000    -3.463000000     3.400000000
O    -2.795000000     2.567000000    -4.825000000
H    -2.817000000     2.806000000    -3.898000000
H    -2.206000000     3.209000000    -5.223000000
O    -1.059000000     4.331000000    -0.667000000
H    -1.823000000     3.759000000    -0.736000000
H    -0.741000000     4.201000000     0.226000000
O     4.512000000    -1.563000000     1.359000000
H     3.977000000    -2.176000000     0.856000000
H     4.533000000    -0.768000000     0.826000000
O    -0.008000000    -2.959000000     2.905000000
H     0.022000000    -3.791000000     2.433000000
H     0.905000000    -2.672000000     2.944000000
O    -5.142000000     0.859000000    -1.986000000
H    -5.640000000     0.727000000    -1.178000000
H    -4.866000000    -0.021000000    -2.243000000
O    -3.252000000     2.475000000     0.776000000
H    -2.405000000     2.340000000     1.202000000
H    -3.707000000     1.639000000     0.879000000
O     0.431000000     6.632000000    -3.885000000
H     1.385000000     6.607000000    -3.805000000
H     0.146000000     5.754000000    -3.631000000
O     3.363000000     1.910000000     4.199000000
H     3.356000000     0.975000000     4.405000000
H     4.263000000     2.186000000     4.370000000
O     3.295000000    -3.641000000    -0.656000000
H     3.142000000    -4.169000000    -1.439000000
H     3.976000000    -4.114000000    -0.178000000
O    -3.776000000    -2.296000000     2.989000000
H    -3.154000000    -1.858000000     3.570000000
H    -4.535000000    -2.477000000     3.543000000
O    -1.238000000    -4.888000000    -3.348000000
H    -1.283000000    -5.751000000    -2.938000000
H    -1.566000000    -4.287000000    -2.679000000
O    -1.711000000    -1.346000000     4.398000000
H    -1.111000000    -1.837000000     3.838000000
H    -1.228000000    -1.222000000     5.215000000
O     7.100000000    -0.676000000    -1.693000000
H     6.544000000    -0.752000000    -2.469000000
H     6.665000000    -0.018000000    -1.151000000
O    -4.267000000    -3.738000000     0.557000000
H    -4.071000000    -3.273000000     1.370000000
H    -5.223000000    -3.739000000     0.505000000
O     2.144000000     3.302000000     2.214000000
H     2.532000000     2.817000000     2.942000000
H     2.273000000     4.222000000     2.443000000
O     2.402000000     1.853000000    -5.637000000
H     2.029000000     1.609000000    -4.790000000
H     1.992000000     1.254000000    -6.261000000
O    -5.121000000     1.592000000     3.670000000
H    -4.803000000     1.120000000     2.900000000
H    -5.709000000     2.259000000     3.316000000
O     0.515000000    -2.744000000    -3.164000000
H     0.867000000    -2.500000000    -2.308000000
H     0.267000000    -3.663000000    -3.068000000
O     4.747000000     0.544000000    -0.208000000
H     4.194000000     0.738000000    -0.965000000
H     4.902000000     1.397000000     0.199000000
O    -0.883000000     2.546000000     2.495000000
H    -0.142000000     2.112000000     2.073000000
H    -0.511000000     2.944000000     3.282000000
O     3.655000000     4.387000000    -5.893000000
H     3.469000000     4.916000000    -5.117000000
H     3.177000000     3.570000000    -5.746000000
O    -5.024000000    -1.369000000    -3.954000000
H    -4.119000000    -1.673000000    -4.023000000
H    -5.142000000    -0.794000000    -4.709000000
O     0.525000000    -2.759000000    -0.159000000
H     0.475000000    -1.954000000     0.356000000
H     1.460000000    -2.880000000    -0.324000000
O     5.793000000     3.399000000    -4.338000000
H     5.377000000     3.494000000    -5.195000000
H     6.348000000     4.174000000    -4.254000000
O    -6.038000000    -2.836000000    -1.854000000
H    -6.217000000    -2.205000000    -1.157000000
H    -5.541000000    -2.339000000    -2.505000000
O    -0.003000000    -1.533000000     6.643000000
H     0.865000000    -1.131000000     6.613000000
H    -0.243000000    -1.516000000     7.570000000
O     4.135000000    -1.181000000     3.893000000
H     4.556000000    -1.245000000     3.036000000
H     3.397000000    -1.788000000     3.844000000
