158
-3011.87747
C    -0.514000000     0.183000000    -1.361000000
H    -0.838000000     0.188000000    -2.399000000
C    -0.862000000    -0.873000000    -0.475000000
H    -1.499000000    -1.708000000    -0.755000000
C    -0.373000000    -0.892000000     0.823000000
H    -0.663000000    -1.760000000     1.435000000
C     0.504000000     0.098000000     1.206000000
H     1.005000000     0.072000000     2.170000000
C     0.766000000     1.233000000     0.394000000
H     1.508000000     1.937000000     0.761000000
C     0.360000000     1.229000000    -0.957000000
C     0.720000000     2.271000000    -1.942000000
O     0.138000000     2.385000000    -2.985000000
O     1.665000000     3.037000000    -1.636000000
O     2.384000000     3.462000000    -7.515000000
H     2.426000000     3.512000000    -6.560000000
H     2.733000000     2.596000000    -7.726000000
O     2.769000000     4.906000000    -3.149000000
H     2.141000000     4.477000000    -2.568000000
H     2.748000000     5.827000000    -2.887000000
O     3.497000000    -0.713000000    -4.063000000
H     3.353000000    -1.424000000    -3.438000000
H     4.127000000    -0.137000000    -3.629000000
O    -5.076000000     3.908000000    -3.037000000
H    -4.888000000     4.666000000    -2.483000000
H    -4.333000000     3.321000000    -2.901000000
O    -4.747000000    -2.111000000    -0.009000000
H    -5.646000000    -1.893000000     0.237000000
H    -4.393000000    -1.297000000    -0.368000000
O     2.189000000     3.403000000     5.898000000
H     2.459000000     2.487000000     5.834000000
H     3.004000000     3.899000000     5.822000000
O    -2.377000000    -2.995000000    -5.767000000
H    -1.900000000    -2.436000000    -5.153000000
H    -3.264000000    -3.041000000    -5.409000000
O     0.000000000     6.118000000    -6.835000000
H    -0.256000000     5.463000000    -6.186000000
H     0.819000000     6.482000000    -6.499000000
O     2.652000000     3.967000000     2.708000000
H     1.933000000     4.550000000     2.465000000
H     2.974000000     4.317000000     3.539000000
O    -3.088000000    -6.978000000     1.562000000
H    -2.232000000    -7.355000000     1.768000000
H    -3.395000000    -6.612000000     2.391000000
O    -4.384000000     0.791000000     2.325000000
H    -3.848000000     0.124000000     2.752000000
H    -3.774000000     1.262000000     1.757000000
O    -2.678000000     1.973000000    -3.287000000
H    -1.851000000     2.254000000    -2.896000000
H    -2.588000000     2.188000000    -4.216000000
O    -2.206000000    -2.902000000     4.927000000
H    -2.697000000    -2.450000000     5.612000000
H    -1.973000000    -3.745000000     5.316000000
O    -0.334000000     1.252000000     5.017000000
H     0.436000000     1.666000000     4.627000000
H    -0.950000000     1.972000000     5.153000000
O     1.791000000    -7.185000000     3.430000000
H     1.523000000    -6.653000000     2.682000000
H     2.126000000    -6.553000000     4.067000000
O     1.107000000     6.157000000     0.904000000
H     0.272000000     6.085000000     0.441000000
H     1.748000000     6.332000000     0.216000000
O    -0.363000000     4.520000000     3.980000000
H    -0.314000000     5.476000000     3.943000000
H     0.551000000     4.234000000     3.990000000
O    -4.056000000     4.388000000    -0.245000000
H    -4.181000000     4.355000000     0.703000000
H    -3.112000000     4.291000000    -0.366000000
O     0.850000000     0.310000000     7.203000000
H     1.799000000     0.272000000     7.079000000
H     0.503000000     0.518000000     6.336000000
O     0.267000000    -1.511000000    -5.080000000
H     0.760000000    -1.898000000    -4.357000000
H     0.380000000    -0.567000000    -4.970000000
O    -3.830000000     0.791000000    -1.156000000
H    -3.286000000     0.964000000    -0.388000000
H    -3.288000000     1.059000000    -1.898000000
O    -2.231000000     1.666000000     1.014000000
H    -1.407000000     1.180000000     0.997000000
H    -1.971000000     2.572000000     1.181000000
O    -0.870000000    -6.383000000    -2.993000000
H    -1.331000000    -5.803000000    -2.387000000
H     0.047000000    -6.116000000    -2.930000000
O    -1.281000000     5.895000000    -0.811000000
H    -1.581000000     5.707000000    -1.701000000
H    -1.453000000     6.829000000    -0.694000000
O     4.675000000    -1.643000000     2.870000000
H     5.360000000    -1.731000000     2.207000000
H     4.820000000    -0.778000000     3.252000000
O     1.612000000    -2.037000000    -1.998000000
H     2.386000000    -1.961000000    -1.439000000
H     1.010000000    -1.372000000    -1.665000000
O    -0.115000000    -3.254000000     3.319000000
H    -0.891000000    -3.172000000     3.873000000
H    -0.443000000    -3.625000000     2.500000000
O     0.733000000    -5.543000000     1.395000000
H     0.997000000    -5.623000000     0.478000000
H    -0.137000000    -5.146000000     1.360000000
O     4.347000000     1.229000000    -1.214000000
H     4.700000000     1.319000000    -0.329000000
H     3.461000000     1.588000000    -1.157000000
O    -5.399000000    -3.668000000     2.843000000
H    -4.950000000    -3.244000000     2.111000000
H    -6.299000000    -3.346000000     2.790000000
O     5.235000000     3.361000000     1.312000000
H     5.736000000     4.144000000     1.539000000
H     4.326000000     3.593000000     1.505000000
O     3.495000000     2.505000000    -4.539000000
H     4.402000000     2.222000000    -4.427000000
H     3.286000000     2.967000000    -3.728000000
O    -0.282000000     4.346000000    -4.667000000
H    -0.096000000     3.816000000    -3.893000000
H    -0.561000000     3.714000000    -5.330000000
O     4.379000000     6.537000000    -0.290000000
H     4.040000000     7.432000000    -0.276000000
H     4.806000000     6.429000000     0.559000000
O     3.953000000    -4.438000000     3.290000000
H     3.943000000    -3.482000000     3.241000000
H     3.598000000    -4.725000000     2.449000000
O    -1.837000000    -4.263000000     1.306000000
H    -2.620000000    -4.603000000     1.740000000
H    -1.992000000    -4.420000000     0.375000000
O    -2.332000000    -0.269000000     3.873000000
H    -1.535000000     0.203000000     4.114000000
H    -2.245000000    -1.120000000     4.303000000
O    -1.066000000    -4.135000000    -1.485000000
H    -0.385000000    -3.487000000    -1.663000000
H    -1.887000000    -3.674000000    -1.656000000
O     4.381000000    -1.512000000    -1.027000000
H     4.380000000    -0.626000000    -1.389000000
H     5.051000000    -1.491000000    -0.344000000
O    -2.054000000     5.971000000    -3.296000000
H    -1.453000000     5.459000000    -3.838000000
H    -2.579000000     6.466000000    -3.924000000
O    -3.390000000    -2.902000000    -2.441000000
H    -3.839000000    -2.257000000    -2.987000000
H    -3.884000000    -2.907000000    -1.621000000
O     1.242000000     1.074000000    -5.075000000
H     2.139000000     1.246000000    -4.790000000
H     0.696000000     1.408000000    -4.362000000
O     6.147000000     1.715000000    -3.766000000
H     5.816000000     1.621000000    -2.872000000
H     6.767000000     2.443000000    -3.716000000
O    -0.832000000     2.517000000    -6.715000000
H    -1.371000000     1.755000000    -6.927000000
H     0.030000000     2.152000000    -6.513000000
O    -4.634000000    -0.984000000    -4.475000000
H    -5.589000000    -0.967000000    -4.535000000
H    -4.358000000    -0.134000000    -4.816000000
O    -1.302000000     4.064000000     1.379000000
H    -1.110000000     4.293000000     2.288000000
H    -1.315000000     4.903000000     0.918000000
O     2.114000000    -2.759000000     5.231000000
H     2.294000000    -2.157000000     4.509000000
H     1.230000000    -3.083000000     5.059000000
O     5.496000000     4.841000000    -2.012000000
H     4.759000000     4.733000000    -2.613000000
H     5.126000000     5.304000000    -1.260000000
