158
-3067.33517
C     0.546000000    -0.493000000     1.379000000
H     1.035000000    -0.949000000     2.237000000
C     1.295000000     0.204000000     0.439000000
H     2.379000000     0.252000000     0.495000000
C     0.670000000     0.587000000    -0.784000000
H     1.314000000     0.875000000    -1.635000000
C    -0.649000000     0.497000000    -0.984000000
H    -1.041000000     0.748000000    -1.966000000
C    -1.469000000    -0.063000000    -0.026000000
H    -2.479000000    -0.360000000    -0.297000000
C    -0.906000000    -0.529000000     1.187000000
C    -1.753000000    -1.381000000     2.066000000
O    -2.890000000    -1.710000000     1.763000000
O    -1.345000000    -1.830000000     3.138000000
O     0.397000000     0.852000000    -5.145000000
H     0.557000000     0.154000000    -4.509000000
H     0.101000000     1.593000000    -4.616000000
O     3.137000000     1.701000000     2.325000000
H     3.449000000     2.579000000     2.544000000
H     3.170000000     1.665000000     1.369000000
O    -2.458000000     1.658000000     3.345000000
H    -1.727000000     1.577000000     2.733000000
H    -3.033000000     2.311000000     2.946000000
O     0.924000000     2.489000000     3.674000000
H     0.397000000     2.759000000     2.922000000
H     1.650000000     1.996000000     3.292000000
O     3.972000000     1.578000000    -0.683000000
H     4.919000000     1.634000000    -0.554000000
H     3.759000000     2.333000000    -1.231000000
O    -5.909000000    -3.965000000     4.714000000
H    -6.755000000    -3.725000000     4.336000000
H    -5.321000000    -3.256000000     4.454000000
O    -1.517000000     0.070000000     5.146000000
H    -1.266000000    -0.676000000     4.602000000
H    -2.025000000     0.632000000     4.562000000
O    -5.101000000     0.838000000    -1.564000000
H    -4.642000000     1.678000000    -1.554000000
H    -5.005000000     0.501000000    -0.673000000
O     3.289000000    -2.769000000    -4.593000000
H     3.289000000    -3.657000000    -4.237000000
H     2.437000000    -2.411000000    -4.345000000
O    -3.348000000    -4.285000000     2.826000000
H    -2.773000000    -3.532000000     2.686000000
H    -3.919000000    -4.296000000     2.058000000
O    -1.324000000    -3.729000000    -0.192000000
H    -0.619000000    -3.730000000     0.455000000
H    -2.042000000    -3.263000000     0.237000000
O     0.952000000    -3.547000000     1.747000000
H     0.452000000    -3.728000000     2.543000000
H     1.750000000    -4.067000000     1.842000000
O    -0.865000000    -0.678000000    -6.974000000
H    -1.672000000    -0.770000000    -6.468000000
H    -0.285000000    -0.168000000    -6.409000000
O     1.088000000    -0.692000000     6.425000000
H     0.169000000    -0.505000000     6.229000000
H     1.071000000    -1.545000000     6.858000000
O     6.512000000    -1.542000000    -3.105000000
H     5.809000000    -1.218000000    -2.543000000
H     6.061000000    -1.983000000    -3.825000000
O     3.962000000     0.027000000    -4.102000000
H     3.828000000    -0.825000000    -4.518000000
H     4.158000000    -0.182000000    -3.189000000
O    -5.906000000     0.461000000     4.210000000
H    -5.317000000     1.215000000     4.253000000
H    -5.328000000    -0.285000000     4.052000000
O    -2.152000000     4.022000000    -0.259000000
H    -1.832000000     4.853000000    -0.611000000
H    -2.355000000     3.497000000    -1.033000000
O    -2.977000000     2.505000000    -2.958000000
H    -2.145000000     2.869000000    -3.262000000
H    -3.530000000     2.487000000    -3.739000000
O     0.138000000    -6.182000000     2.598000000
H    -0.181000000    -5.412000000     3.070000000
H     0.420000000    -6.785000000     3.286000000
O    -3.747000000    -1.526000000     6.889000000
H    -2.876000000    -1.285000000     7.205000000
H    -4.349000000    -1.077000000     7.482000000
O     0.787000000     4.494000000    -1.850000000
H     0.142000000     5.184000000    -1.691000000
H     1.268000000     4.422000000    -1.026000000
O    -1.458000000    -2.442000000    -2.707000000
H    -1.956000000    -3.191000000    -3.033000000
H    -1.252000000    -2.669000000    -1.800000000
O    -0.696000000     2.595000000     1.472000000
H    -0.408000000     1.950000000     0.826000000
H    -1.435000000     3.037000000     1.056000000
O     4.485000000    -0.976000000    -1.208000000
H     4.287000000    -0.062000000    -1.006000000
H     3.659000000    -1.438000000    -1.062000000
O    -3.670000000    -1.086000000    -3.214000000
H    -3.505000000    -0.147000000    -3.123000000
H    -2.816000000    -1.494000000    -3.072000000
O     1.799000000     4.691000000     0.478000000
H     1.362000000     4.740000000     1.329000000
H     2.731000000     4.648000000     0.690000000
O     1.790000000     2.145000000    -7.361000000
H     1.434000000     1.659000000    -6.617000000
H     1.135000000     2.039000000    -8.052000000
O    -4.820000000    -4.208000000     0.530000000
H    -5.594000000    -4.769000000     0.481000000
H    -4.896000000    -3.630000000    -0.230000000
O    -5.150000000    -0.347000000     0.784000000
H    -5.895000000    -0.753000000     1.226000000
H    -4.382000000    -0.723000000     1.215000000
O    -5.729000000    -2.247000000    -1.866000000
H    -4.982000000    -2.054000000    -2.431000000
H    -6.107000000    -1.390000000    -1.668000000
O    -4.353000000    -1.777000000     4.334000000
H    -3.626000000    -1.835000000     3.713000000
H    -3.931000000    -1.737000000     5.193000000
O     0.677000000    -1.181000000    -3.413000000
H     1.273000000    -1.238000000    -2.666000000
H    -0.172000000    -1.451000000    -3.064000000
O     3.986000000    -3.263000000     4.586000000
H     3.322000000    -3.841000000     4.963000000
H     3.913000000    -2.453000000     5.091000000
O    -4.345000000     3.458000000     1.792000000
H    -5.247000000     3.234000000     1.564000000
H    -3.920000000     3.625000000     0.951000000
O     6.526000000     1.793000000    -1.425000000
H     6.239000000     2.119000000    -2.278000000
H     7.442000000     1.548000000    -1.558000000
O    -0.458000000    -4.174000000     4.183000000
H    -0.773000000    -3.307000000     3.928000000
H    -0.956000000    -4.386000000     4.973000000
O    -2.851000000    -4.355000000     5.745000000
H    -3.237000000    -4.560000000     4.893000000
H    -3.487000000    -3.775000000     6.163000000
O    -7.067000000    -1.955000000     2.001000000
H    -6.953000000    -2.894000000     2.150000000
H    -7.730000000    -1.690000000     2.638000000
O     3.808000000     3.662000000    -2.320000000
H     3.740000000     4.432000000    -1.755000000
H     3.178000000     3.824000000    -3.022000000
O     4.210000000    -3.940000000     2.094000000
H     4.652000000    -3.219000000     1.645000000
H     4.125000000    -3.641000000     2.999000000
O    -0.377000000     3.040000000    -3.865000000
H     0.160000000     3.351000000    -3.136000000
H    -0.192000000     3.653000000    -4.577000000
O     3.702000000    -0.459000000     5.511000000
H     2.849000000    -0.521000000     5.940000000
H     4.277000000    -0.074000000     6.173000000
O     5.334000000     2.239000000    -4.671000000
H     4.859000000     1.420000000    -4.534000000
H     5.160000000     2.752000000    -3.881000000
O    -6.503000000     2.023000000     0.862000000
H    -7.283000000     1.496000000     0.691000000
H    -5.782000000     1.393000000     0.853000000
O     5.942000000    -2.479000000     0.533000000
H     5.317000000    -2.098000000    -0.084000000
H     6.299000000    -1.728000000     1.007000000
O     2.114000000    -2.385000000    -1.035000000
H     2.078000000    -3.286000000    -1.357000000
H     1.775000000    -2.436000000    -0.142000000
O     5.114000000    -0.260000000     3.177000000
H     4.580000000     0.335000000     2.649000000
H     4.506000000    -0.618000000     3.824000000
