158
-3039.35950
C    -0.604000000     0.061000000    -1.353000000
H    -1.068000000     0.167000000    -2.330000000
C    -1.318000000     0.007000000    -0.159000000
H    -2.398000000    -0.023000000    -0.279000000
C    -0.692000000    -0.005000000     1.023000000
H    -1.293000000    -0.073000000     1.900000000
C     0.716000000    -0.087000000     1.076000000
H     1.175000000    -0.183000000     2.056000000
C     1.478000000     0.012000000    -0.076000000
H     2.560000000    -0.083000000    -0.044000000
C     0.806000000     0.114000000    -1.315000000
C     1.642000000     0.097000000    -2.584000000
O     1.140000000     0.095000000    -3.665000000
O     2.866000000     0.112000000    -2.498000000
O    -5.273000000     4.124000000    -0.991000000
H    -4.649000000     3.560000000    -0.535000000
H    -5.114000000     4.997000000    -0.631000000
O    -4.852000000     0.447000000     0.892000000
H    -4.874000000     0.282000000    -0.051000000
H    -5.774000000     0.474000000     1.151000000
O     4.502000000    -1.411000000    -5.367000000
H     3.824000000    -0.790000000    -5.632000000
H     4.231000000    -2.242000000    -5.757000000
O     4.274000000     2.287000000    -4.142000000
H     3.837000000     2.547000000    -3.330000000
H     3.721000000     1.592000000    -4.499000000
O    -3.462000000     1.168000000     3.184000000
H    -3.858000000     0.687000000     2.457000000
H    -3.138000000     0.486000000     3.773000000
O    -0.603000000     3.388000000     6.685000000
H    -0.075000000     2.590000000     6.678000000
H    -1.285000000     3.218000000     7.335000000
O     0.246000000    -4.015000000    -0.272000000
H    -0.456000000    -3.413000000    -0.520000000
H    -0.053000000    -4.871000000    -0.581000000
O     5.229000000     2.758000000     1.785000000
H     4.749000000     2.556000000     0.981000000
H     5.461000000     3.682000000     1.699000000
O    -5.438000000     4.208000000     3.235000000
H    -5.371000000     3.933000000     2.321000000
H    -6.025000000     3.566000000     3.636000000
O    -3.467000000     3.327000000     0.765000000
H    -3.639000000     2.395000000     0.897000000
H    -2.521000000     3.379000000     0.632000000
O    -0.815000000     1.130000000    -5.008000000
H    -0.107000000     0.817000000    -4.445000000
H    -0.492000000     0.991000000    -5.898000000
O     6.962000000     3.233000000    -3.570000000
H     6.094000000     3.067000000    -3.937000000
H     6.790000000     3.544000000    -2.681000000
O    -1.077000000     0.512000000     5.445000000
H    -0.433000000    -0.142000000     5.174000000
H    -1.819000000    -0.001000000     5.766000000
O     4.339000000     2.196000000    -0.977000000
H     3.692000000     2.857000000    -1.222000000
H     4.169000000     1.463000000    -1.569000000
O     4.204000000    -4.288000000    -4.866000000
H     4.598000000    -5.156000000    -4.778000000
H     3.991000000    -4.030000000    -3.969000000
O     4.882000000    -3.963000000     1.785000000
H     4.981000000    -4.904000000     1.931000000
H     3.946000000    -3.842000000     1.629000000
O    -0.455000000    -3.053000000    -6.761000000
H    -0.036000000    -2.651000000    -6.000000000
H     0.075000000    -2.767000000    -7.505000000
O     2.900000000     0.551000000    -5.624000000
H     2.300000000     0.359000000    -4.903000000
H     2.363000000     0.465000000    -6.411000000
O     3.610000000    -2.155000000     4.652000000
H     4.131000000    -2.606000000     5.317000000
H     4.241000000    -1.921000000     3.972000000
O    -0.883000000     3.014000000     0.172000000
H    -0.796000000     2.085000000    -0.041000000
H    -0.266000000     3.154000000     0.891000000
O    -5.506000000    -2.244000000     4.316000000
H    -6.037000000    -2.667000000     3.642000000
H    -5.713000000    -1.313000000     4.235000000
O     0.797000000    -2.682000000     7.038000000
H     0.973000000    -1.922000000     6.484000000
H     1.621000000    -2.838000000     7.499000000
O    -4.984000000     0.058000000    -1.935000000
H    -5.693000000     0.647000000    -2.192000000
H    -4.382000000     0.069000000    -2.679000000
O    -1.564000000     2.767000000     3.950000000
H    -1.217000000     2.204000000     4.643000000
H    -2.168000000     2.206000000     3.465000000
O     5.172000000     0.338000000     4.122000000
H     5.489000000    -0.457000000     3.693000000
H     5.963000000     0.850000000     4.292000000
O     4.053000000    -3.074000000    -2.379000000
H     3.746000000    -2.168000000    -2.362000000
H     4.889000000    -3.052000000    -1.913000000
O    -2.524000000    -2.842000000     3.467000000
H    -3.121000000    -2.312000000     3.996000000
H    -2.551000000    -3.709000000     3.871000000
O     1.696000000    -0.454000000     5.444000000
H     2.011000000     0.380000000     5.097000000
H     2.340000000    -1.096000000     5.146000000
O     5.210000000    -0.769000000    -1.719000000
H     5.899000000    -0.393000000    -2.267000000
H     4.395000000    -0.516000000    -2.151000000
O    -3.440000000    -3.506000000     1.016000000
H    -3.513000000    -3.141000000     1.898000000
H    -2.569000000    -3.244000000     0.719000000
O     0.551000000     3.143000000    -3.083000000
H     0.297000000     2.225000000    -3.176000000
H    -0.030000000     3.613000000    -3.681000000
O    -3.424000000    -0.704000000     6.058000000
H    -3.623000000    -1.559000000     6.439000000
H    -3.649000000    -0.077000000     6.745000000
O    -3.065000000     3.697000000    -5.960000000
H    -2.447000000     3.410000000    -5.287000000
H    -2.771000000     3.258000000    -6.758000000
O     2.900000000     1.867000000     3.870000000
H     3.756000000     1.460000000     3.733000000
H     3.049000000     2.510000000     4.563000000
O     1.206000000    -2.086000000    -4.954000000
H     0.971000000    -1.302000000    -4.458000000
H     2.048000000    -2.357000000    -4.588000000
O     6.719000000     0.910000000     0.358000000
H     6.294000000     0.590000000    -0.438000000
H     6.158000000     1.624000000     0.659000000
O     7.259000000     0.529000000    -2.712000000
H     8.189000000     0.340000000    -2.840000000
H     7.150000000     1.423000000    -3.037000000
O     0.602000000     3.181000000     2.519000000
H    -0.116000000     3.075000000     3.143000000
H     1.373000000     2.856000000     2.983000000
O     6.950000000    -1.918000000    -3.989000000
H     7.148000000    -1.077000000    -3.578000000
H     6.079000000    -1.800000000    -4.369000000
O     2.881000000     4.324000000    -2.345000000
H     2.654000000     5.003000000    -1.710000000
H     2.037000000     4.006000000    -2.667000000
O    -2.329000000    -3.159000000    -1.870000000
H    -2.971000000    -3.728000000    -1.446000000
H    -2.822000000    -2.373000000    -2.102000000
O     6.184000000     0.926000000    -5.618000000
H     5.739000000     0.140000000    -5.934000000
H     5.523000000     1.384000000    -5.100000000
O     0.920000000     0.666000000    -7.589000000
H     1.217000000     1.331000000    -8.209000000
H     0.667000000    -0.077000000    -8.137000000
O     2.418000000    -3.295000000     0.917000000
H     1.655000000    -3.443000000     0.358000000
H     2.196000000    -2.515000000     1.424000000
O    -2.970000000    -0.876000000    -3.945000000
H    -3.295000000    -1.519000000    -4.575000000
H    -2.384000000    -0.316000000    -4.455000000
O    -0.092000000     5.699000000     1.779000000
H     0.067000000     4.800000000     2.069000000
H    -0.043000000     5.654000000     0.824000000
O    -3.149000000     4.981000000     4.633000000
H    -3.934000000     4.785000000     4.122000000
H    -2.569000000     4.236000000     4.475000000
O    -6.542000000    -2.483000000    -0.069000000
H    -5.739000000    -2.777000000     0.363000000
H    -6.274000000    -1.718000000    -0.577000000
