158
-3022.87346
C    -1.296000000    -0.194000000    -0.686000000
H    -2.243000000    -0.321000000    -1.204000000
C    -0.746000000    -1.073000000     0.276000000
H    -1.340000000    -1.906000000     0.641000000
C     0.468000000    -0.824000000     0.880000000
H     0.788000000    -1.414000000     1.757000000
C     1.124000000     0.339000000     0.499000000
H     2.050000000     0.569000000     1.019000000
C     0.609000000     1.209000000    -0.470000000
H     1.080000000     2.144000000    -0.762000000
C    -0.560000000     0.894000000    -1.150000000
C    -1.218000000     1.887000000    -2.169000000
O    -2.191000000     1.672000000    -2.805000000
O    -0.548000000     2.770000000    -2.615000000
O    -0.210000000     3.330000000    -7.755000000
H     0.496000000     3.313000000    -7.108000000
H    -0.007000000     2.609000000    -8.350000000
O     0.002000000     0.891000000    -5.205000000
H     0.724000000     0.791000000    -4.584000000
H    -0.580000000     1.530000000    -4.794000000
O    -5.644000000     5.229000000    -1.578000000
H    -5.391000000     5.279000000    -0.656000000
H    -5.248000000     4.416000000    -1.891000000
O    -5.779000000    -0.358000000     0.125000000
H    -5.948000000    -0.956000000    -0.603000000
H    -6.014000000    -0.860000000     0.906000000
O    -1.639000000     0.092000000     3.151000000
H    -1.632000000     0.085000000     2.194000000
H    -0.859000000     0.592000000     3.392000000
O    -1.359000000     6.220000000    -6.141000000
H    -1.410000000     5.570000000    -5.441000000
H    -2.040000000     6.857000000    -5.927000000
O     1.622000000     3.854000000     2.660000000
H     2.222000000     3.904000000     1.915000000
H     1.329000000     4.756000000     2.792000000
O     4.527000000    -5.546000000     0.849000000
H     4.977000000    -6.373000000     0.679000000
H     4.019000000    -5.708000000     1.644000000
O     0.671000000    -3.190000000    -1.433000000
H     0.782000000    -2.704000000    -0.616000000
H     1.499000000    -3.069000000    -1.898000000
O    -4.262000000     3.202000000    -2.907000000
H    -3.522000000     2.635000000    -2.689000000
H    -4.653000000     2.799000000    -3.682000000
O    -3.328000000    -5.626000000     1.804000000
H    -2.753000000    -4.923000000     1.501000000
H    -3.134000000    -5.708000000     2.738000000
O     1.812000000     6.094000000    -1.796000000
H     1.323000000     5.538000000    -1.189000000
H     2.731000000     5.919000000    -1.593000000
O     3.161000000     3.660000000     0.348000000
H     3.961000000     4.180000000     0.277000000
H     3.171000000     3.096000000    -0.425000000
O     7.085000000    -0.504000000     2.318000000
H     6.390000000    -1.098000000     2.035000000
H     6.653000000     0.346000000     2.407000000
O     4.884000000    -2.563000000     2.020000000
H     4.207000000    -1.919000000     2.229000000
H     4.401000000    -3.374000000     1.860000000
O    -0.792000000    -1.791000000    -3.337000000
H    -0.022000000    -1.227000000    -3.411000000
H    -0.473000000    -2.575000000    -2.890000000
O    -3.292000000    -2.419000000    -4.760000000
H    -2.379000000    -2.431000000    -4.471000000
H    -3.606000000    -1.546000000    -4.523000000
O     3.716000000    -1.137000000     4.235000000
H     2.782000000    -0.967000000     4.357000000
H     4.151000000    -0.391000000     4.647000000
O     1.971000000    -5.869000000     0.162000000
H     1.713000000    -5.830000000     1.083000000
H     2.781000000    -5.361000000     0.118000000
O    -3.792000000     1.671000000     1.293000000
H    -4.278000000     0.991000000     0.827000000
H    -3.299000000     2.125000000     0.609000000
O     2.323000000    -3.859000000     2.899000000
H     2.058000000    -3.012000000     3.257000000
H     2.833000000    -4.267000000     3.599000000
O     7.291000000    -3.949000000     1.670000000
H     7.928000000    -3.265000000     1.464000000
H     6.477000000    -3.474000000     1.839000000
O     0.251000000    -6.816000000     3.648000000
H    -0.198000000    -6.504000000     4.434000000
H     0.206000000    -6.080000000     3.038000000
O    -0.126000000     4.379000000    -0.463000000
H    -0.324000000     3.960000000    -1.301000000
H    -0.849000000     4.992000000    -0.325000000
O    -0.908000000    -5.045000000     5.462000000
H    -0.713000000    -5.134000000     6.395000000
H    -1.527000000    -4.317000000     5.416000000
O     0.664000000    -2.406000000     4.838000000
H     1.021000000    -2.531000000     5.717000000
H    -0.274000000    -2.571000000     4.935000000
O     1.673000000    -0.226000000    -3.180000000
H     1.546000000     0.288000000    -2.383000000
H     2.218000000    -0.964000000    -2.905000000
O     4.350000000    -3.924000000     4.708000000
H     4.359000000    -3.155000000     4.138000000
H     5.128000000    -4.420000000     4.452000000
O    -3.523000000    -2.527000000     2.600000000
H    -3.204000000    -2.253000000     1.739000000
H    -4.444000000    -2.743000000     2.456000000
O    -1.988000000    -5.069000000    -0.935000000
H    -1.939000000    -6.021000000    -1.017000000
H    -1.099000000    -4.802000000    -0.698000000
O     1.854000000     3.595000000    -3.801000000
H     1.876000000     4.530000000    -3.598000000
H     1.030000000     3.287000000    -3.422000000
O     4.574000000     0.678000000     1.137000000
H     5.104000000     1.415000000     0.834000000
H     3.998000000     1.054000000     1.802000000
O     3.201000000     1.738000000     3.176000000
H     2.594000000     2.475000000     3.245000000
H     2.810000000     1.054000000     3.720000000
O     2.645000000     3.325000000    -6.447000000
H     3.045000000     2.470000000    -6.606000000
H     2.789000000     3.487000000    -5.514000000
O    -2.063000000     4.765000000    -3.829000000
H    -1.358000000     4.138000000    -3.667000000
H    -2.807000000     4.421000000    -3.334000000
O     3.440000000    -2.604000000    -1.846000000
H     4.077000000    -3.267000000    -2.113000000
H     3.969000000    -1.836000000    -1.631000000
O    -0.213000000    -4.579000000     2.035000000
H    -0.420000000    -3.684000000     1.768000000
H     0.229000000    -4.481000000     2.879000000
O    -3.706000000    -3.094000000    -0.243000000
H    -4.385000000    -2.984000000    -0.909000000
H    -3.222000000    -3.872000000    -0.521000000
O     1.604000000     1.019000000     6.586000000
H     1.826000000     0.738000000     7.474000000
H     0.650000000     0.949000000     6.545000000
O     4.437000000    -0.185000000    -1.426000000
H     4.834000000     0.074000000    -0.595000000
H     4.004000000     0.608000000    -1.742000000
O    -1.858000000     7.547000000    -2.769000000
H    -1.838000000     6.813000000    -3.383000000
H    -2.184000000     7.168000000    -1.953000000
O    -6.177000000    -1.533000000    -4.336000000
H    -6.065000000    -2.322000000    -3.807000000
H    -5.461000000    -0.958000000    -4.064000000
O    -4.063000000     0.065000000    -3.931000000
H    -4.483000000     0.820000000    -4.342000000
H    -3.435000000     0.446000000    -3.316000000
O     3.752000000     2.333000000    -2.128000000
H     2.940000000     2.572000000    -2.574000000
H     4.431000000     2.831000000    -2.584000000
O    -5.044000000     2.344000000    -5.538000000
H    -4.957000000     3.292000000    -5.635000000
H    -5.159000000     2.022000000    -6.432000000
O    -0.892000000     3.391000000     1.900000000
H    -0.155000000     2.977000000     2.349000000
H    -0.528000000     3.689000000     1.067000000
O    -2.327000000    -2.652000000     5.088000000
H    -2.751000000    -1.944000000     5.574000000
H    -2.620000000    -2.531000000     4.185000000
O     1.006000000     0.182000000     4.140000000
H     0.720000000    -0.698000000     4.387000000
H     1.307000000     0.575000000     4.959000000
