158
-3048.10944
C    -0.849000000     0.676000000    -0.987000000
H    -1.516000000     1.078000000    -1.745000000
C    -1.298000000    -0.213000000    -0.001000000
H    -2.322000000    -0.566000000    -0.086000000
C    -0.377000000    -0.721000000     0.895000000
H    -0.763000000    -1.413000000     1.617000000
C     0.974000000    -0.423000000     0.869000000
H     1.693000000    -0.893000000     1.536000000
C     1.351000000     0.364000000    -0.236000000
H     2.413000000     0.600000000    -0.226000000
C     0.452000000     0.973000000    -1.137000000
C     0.857000000     1.938000000    -2.249000000
O    -0.006000000     2.485000000    -2.921000000
O     2.047000000     2.239000000    -2.404000000
O    -0.510000000     1.396000000    -5.311000000
H    -0.214000000     1.646000000    -4.436000000
H    -1.075000000     2.117000000    -5.589000000
O     3.259000000     4.251000000    -3.745000000
H     2.891000000     3.645000000    -3.103000000
H     2.549000000     4.866000000    -3.929000000
O    -2.579000000     4.677000000    -0.420000000
H    -3.069000000     3.855000000    -0.446000000
H    -2.659000000     4.975000000     0.486000000
O    -2.827000000    -5.125000000     4.347000000
H    -3.602000000    -4.567000000     4.412000000
H    -3.038000000    -5.891000000     4.881000000
O    -2.919000000     0.543000000     4.312000000
H    -2.147000000    -0.013000000     4.421000000
H    -2.737000000     1.314000000     4.848000000
O    -2.188000000     3.670000000    -6.098000000
H    -2.269000000     4.624000000    -6.105000000
H    -2.637000000     3.398000000    -5.297000000
O     0.822000000     6.019000000    -4.672000000
H     0.334000000     5.721000000    -3.905000000
H     0.307000000     5.712000000    -5.418000000
O     4.947000000     2.689000000    -0.284000000
H     5.816000000     3.059000000    -0.132000000
H     5.020000000     2.242000000    -1.127000000
O    -0.564000000     4.974000000    -2.373000000
H    -0.459000000     4.048000000    -2.592000000
H    -1.324000000     4.997000000    -1.791000000
O     5.243000000    -1.306000000     0.521000000
H     6.174000000    -1.514000000     0.598000000
H     5.050000000    -0.779000000     1.296000000
O    -3.933000000     3.496000000    -3.718000000
H    -3.657000000     2.943000000    -2.987000000
H    -4.779000000     3.136000000    -3.984000000
O    -1.407000000    -3.394000000     2.941000000
H    -1.807000000    -3.806000000     3.708000000
H    -0.700000000    -3.989000000     2.692000000
O     5.286000000     5.588000000    -2.094000000
H     5.894000000     4.851000000    -2.037000000
H     4.741000000     5.391000000    -2.855000000
O     4.867000000    -0.160000000    -1.896000000
H     5.084000000    -0.485000000    -1.023000000
H     5.712000000    -0.063000000    -2.334000000
O     5.450000000     3.885000000    -5.668000000
H     5.340000000     4.773000000    -6.006000000
H     4.809000000     3.817000000    -4.960000000
O    -2.762000000     2.385000000     2.082000000
H    -2.965000000     1.886000000     2.874000000
H    -3.350000000     2.027000000     1.417000000
O    -4.031000000    -2.069000000    -4.340000000
H    -3.639000000    -2.582000000    -3.634000000
H    -3.292000000    -1.614000000    -4.744000000
O     2.298000000    -2.096000000    -4.744000000
H     2.530000000    -2.543000000    -3.929000000
H     2.438000000    -1.168000000    -4.557000000
O    -2.687000000    -3.655000000     0.534000000
H    -1.906000000    -3.203000000     0.853000000
H    -3.305000000    -3.610000000     1.263000000
O     1.811000000     2.724000000     3.796000000
H     2.092000000     3.545000000     3.392000000
H     1.066000000     2.439000000     3.266000000
O    -4.339000000     2.569000000    -0.615000000
H    -4.305000000     1.933000000    -1.329000000
H    -5.273000000     2.737000000    -0.487000000
O    -7.212000000    -0.373000000    -1.279000000
H    -8.076000000    -0.295000000    -0.875000000
H    -6.599000000    -0.135000000    -0.583000000
O    -0.133000000    -5.373000000    -2.004000000
H     0.067000000    -4.544000000    -1.569000000
H    -0.627000000    -5.120000000    -2.784000000
O    -3.791000000     0.852000000    -2.899000000
H    -4.440000000     0.171000000    -2.724000000
H    -3.060000000     0.387000000    -3.305000000
O    -5.084000000    -0.906000000     0.859000000
H    -5.120000000    -0.560000000     1.751000000
H    -4.741000000    -1.794000000     0.961000000
O     4.214000000    -0.745000000     3.329000000
H     4.680000000     0.092000000     3.340000000
H     3.364000000    -0.551000000     3.723000000
O     4.426000000    -3.654000000     2.929000000
H     5.035000000    -3.731000000     3.664000000
H     4.317000000    -2.711000000     2.806000000
O     2.181000000     3.801000000     0.458000000
H     2.976000000     3.386000000     0.124000000
H     1.536000000     3.094000000     0.486000000
O    -1.365000000    -6.591000000     0.519000000
H    -2.075000000    -5.995000000     0.280000000
H    -0.902000000    -6.755000000    -0.302000000
O     2.833000000     5.962000000    -1.032000000
H     2.463000000     5.273000000    -0.481000000
H     3.705000000     5.643000000    -1.263000000
O     2.515000000    -5.214000000     3.659000000
H     1.670000000    -5.040000000     3.244000000
H     3.083000000    -4.509000000     3.348000000
O     1.798000000    -0.309000000     4.440000000
H     1.876000000    -0.659000000     5.328000000
H     1.090000000    -0.817000000     4.044000000
O     3.144000000     0.447000000    -3.910000000
H     3.664000000     0.098000000    -3.186000000
H     2.801000000     1.277000000    -3.580000000
O    -0.866000000    -1.094000000     4.825000000
H    -1.128000000    -1.820000000     4.258000000
H    -0.916000000    -1.453000000     5.711000000
O     0.019000000     1.052000000     7.093000000
H     0.673000000     1.695000000     6.817000000
H    -0.313000000     0.682000000     6.276000000
O     1.885000000     0.853000000    -6.542000000
H     2.539000000     0.839000000    -5.843000000
H     1.067000000     1.081000000    -6.101000000
O     4.472000000     2.028000000     2.582000000
H     4.621000000     2.266000000     1.666000000
H     3.769000000     2.611000000     2.869000000
O    -0.512000000     7.595000000    -1.712000000
H     0.228000000     7.915000000    -1.197000000
H    -0.333000000     6.663000000    -1.835000000
O     2.526000000    -4.491000000     0.201000000
H     2.591000000    -3.807000000    -0.466000000
H     3.404000000    -4.544000000     0.576000000
O     0.506000000    -5.139000000     1.751000000
H     1.291000000    -5.046000000     1.211000000
H     0.025000000    -5.864000000     1.352000000
O    -4.985000000    -3.611000000     2.176000000
H    -5.292000000    -4.518000000     2.186000000
H    -5.363000000    -3.221000000     2.963000000
O    -2.436000000    -3.195000000    -2.338000000
H    -2.650000000    -3.319000000    -1.414000000
H    -1.480000000    -3.159000000    -2.361000000
O     0.166000000    -2.407000000    -1.920000000
H    -0.138000000    -1.633000000    -1.446000000
H     1.117000000    -2.307000000    -1.959000000
O     3.027000000    -2.385000000    -1.963000000
H     3.822000000    -2.901000000    -2.096000000
H     3.339000000    -1.487000000    -1.854000000
O    -1.936000000    -0.893000000    -5.525000000
H    -1.238000000    -0.327000000    -5.196000000
H    -2.430000000    -0.338000000    -6.129000000
O    -5.700000000     0.088000000     4.173000000
H    -5.795000000     0.055000000     5.125000000
H    -4.769000000     0.260000000     4.030000000
O    -0.111000000     2.241000000     2.076000000
H    -1.065000000     2.313000000     2.050000000
H     0.098000000     1.580000000     1.416000000
O     0.796000000    -3.521000000     4.989000000
H     1.610000000    -4.013000000     4.884000000
H     1.012000000    -2.832000000     5.617000000
