158
-3014.51600
C     0.613000000     1.155000000    -0.660000000
H     0.859000000     2.093000000    -1.150000000
C    -0.068000000     1.120000000     0.513000000
H    -0.360000000     2.049000000     0.998000000
C    -0.612000000    -0.030000000     1.085000000
H    -1.248000000     0.070000000     1.923000000
C    -0.340000000    -1.215000000     0.423000000
H    -0.677000000    -2.118000000     0.926000000
C     0.473000000    -1.243000000    -0.773000000
H     0.700000000    -2.205000000    -1.225000000
C     0.775000000    -0.033000000    -1.401000000
C     1.470000000     0.021000000    -2.747000000
O     1.532000000     1.032000000    -3.394000000
O     1.944000000    -0.961000000    -3.178000000
O    -0.067000000     1.345000000    -5.409000000
H     0.481000000     1.219000000    -6.184000000
H     0.500000000     1.112000000    -4.674000000
O     6.250000000    -2.052000000    -6.159000000
H     5.459000000    -1.683000000    -5.765000000
H     6.969000000    -1.651000000    -5.671000000
O    -1.242000000     3.261000000    -3.502000000
H    -0.365000000     2.905000000    -3.646000000
H    -1.186000000     4.167000000    -3.805000000
O    -1.731000000     3.591000000    -0.592000000
H    -2.498000000     3.051000000    -0.400000000
H    -1.499000000     3.367000000    -1.493000000
O     0.918000000    -3.373000000    -3.590000000
H     1.383000000    -2.548000000    -3.446000000
H     1.405000000    -3.802000000    -4.293000000
O    -2.124000000    -4.130000000     2.688000000
H    -1.912000000    -3.197000000     2.684000000
H    -2.883000000    -4.201000000     3.266000000
O    -4.950000000    -1.930000000     6.370000000
H    -4.147000000    -1.411000000     6.423000000
H    -5.375000000    -1.801000000     7.218000000
O    -6.115000000     1.046000000     5.227000000
H    -5.372000000     1.589000000     5.492000000
H    -5.802000000     0.570000000     4.458000000
O    -1.890000000     3.036000000    -6.742000000
H    -2.760000000     2.730000000    -6.487000000
H    -1.294000000     2.360000000    -6.419000000
O     5.783000000     3.598000000    -0.673000000
H     6.233000000     2.797000000    -0.404000000
H     4.956000000     3.582000000    -0.191000000
O     1.064000000    -1.054000000     7.720000000
H     1.431000000    -1.368000000     6.893000000
H     0.962000000    -0.111000000     7.595000000
O     1.022000000    -4.342000000     2.207000000
H     1.871000000    -4.785000000     2.209000000
H     0.464000000    -4.889000000     2.759000000
O    -1.758000000    -1.002000000    -5.141000000
H    -1.154000000    -0.573000000    -4.534000000
H    -1.952000000    -0.334000000    -5.798000000
O    -4.339000000    -1.527000000     0.695000000
H    -5.075000000    -1.359000000     0.107000000
H    -3.872000000    -2.259000000     0.291000000
O     3.269000000    -1.773000000    -7.814000000
H     2.627000000    -1.406000000    -7.206000000
H     2.956000000    -2.662000000    -7.984000000
O     2.614000000     3.390000000    -3.532000000
H     2.367000000     2.466000000    -3.542000000
H     2.215000000     3.736000000    -2.734000000
O    -0.254000000    -4.875000000    -0.457000000
H    -0.703000000    -5.397000000     0.207000000
H     0.318000000    -4.293000000     0.042000000
O     2.389000000    -2.095000000     1.363000000
H     1.958000000    -2.852000000     1.759000000
H     1.697000000    -1.661000000     0.863000000
O     0.798000000    -1.322000000    -6.692000000
H     0.078000000    -1.391000000    -6.066000000
H     0.437000000    -1.663000000    -7.511000000
O     1.571000000     1.519000000    -7.675000000
H     2.394000000     1.285000000    -7.245000000
H     1.733000000     1.363000000    -8.605000000
O    -2.461000000    -1.828000000     4.362000000
H    -2.856000000    -0.965000000     4.482000000
H    -3.190000000    -2.391000000     4.099000000
O     2.109000000     5.231000000    -1.348000000
H     2.120000000     6.177000000    -1.494000000
H     1.634000000     5.121000000    -0.524000000
O    -1.046000000     1.840000000     4.771000000
H    -0.672000000     2.657000000     5.102000000
H    -1.690000000     2.118000000     4.119000000
O    -0.194000000     5.241000000     3.184000000
H     0.220000000     4.794000000     2.446000000
H     0.433000000     5.151000000     3.901000000
O    -1.679000000    -1.516000000     7.659000000
H    -1.822000000    -0.874000000     6.963000000
H    -0.733000000    -1.667000000     7.655000000
O    -4.366000000    -3.692000000     4.380000000
H    -5.044000000    -4.321000000     4.134000000
H    -4.644000000    -3.363000000     5.235000000
O     3.417000000     3.707000000    -6.013000000
H     2.989000000     3.598000000    -5.164000000
H     3.979000000     2.936000000    -6.099000000
O    -3.926000000    -1.895000000    -2.778000000
H    -3.541000000    -1.897000000    -3.655000000
H    -3.871000000    -0.983000000    -2.494000000
O     4.772000000    -3.658000000    -3.022000000
H     5.428000000    -3.025000000    -3.318000000
H     4.212000000    -3.161000000    -2.426000000
O    -4.748000000    -0.128000000     3.060000000
H    -4.479000000     0.598000000     2.497000000
H    -4.780000000    -0.885000000     2.475000000
O     6.814000000    -1.769000000    -3.162000000
H     7.466000000    -1.535000000    -3.823000000
H     6.342000000    -0.953000000    -2.993000000
O     5.088000000     0.129000000    -2.590000000
H     4.957000000     1.018000000    -2.262000000
H     4.772000000    -0.436000000    -1.885000000
O    -2.648000000     3.459000000     3.044000000
H    -3.474000000     3.848000000     3.330000000
H    -2.117000000     4.204000000     2.763000000
O     3.612000000    -1.855000000    -1.398000000
H     3.028000000    -1.542000000    -2.089000000
H     3.064000000    -1.874000000    -0.613000000
O     0.150000000    -2.496000000     4.993000000
H    -0.731000000    -2.153000000     4.846000000
H     0.021000000    -3.433000000     5.138000000
O     0.118000000     5.177000000     0.501000000
H    -0.536000000     4.585000000     0.129000000
H    -0.385000000     5.941000000     0.785000000
O     4.117000000     0.842000000     0.353000000
H     3.920000000     0.640000000     1.267000000
H     3.637000000     1.651000000     0.177000000
O     3.849000000     3.555000000     1.269000000
H     3.076000000     4.114000000     1.346000000
H     4.533000000     4.025000000     1.746000000
O    -1.354000000    -4.258000000    -2.703000000
H    -0.613000000    -3.711000000    -2.965000000
H    -1.078000000    -4.654000000    -1.876000000
O    -1.680000000    -6.403000000     1.480000000
H    -1.619000000    -5.744000000     2.172000000
H    -2.509000000    -6.213000000     1.041000000
O     5.326000000     4.373000000    -3.514000000
H     5.405000000     4.179000000    -2.580000000
H     4.431000000     4.115000000    -3.736000000
O    -4.412000000     2.710000000     0.565000000
H    -3.938000000     2.513000000     1.373000000
H    -4.874000000     3.527000000     0.752000000
O     4.003000000    -1.123000000    -4.857000000
H     3.106000000    -1.231000000    -4.541000000
H     4.417000000    -0.549000000    -4.212000000
O     1.169000000    -6.333000000    -2.463000000
H     1.545000000    -5.860000000    -3.205000000
H     0.818000000    -5.648000000    -1.894000000
O     4.168000000     1.238000000    -6.846000000
H     4.321000000     0.365000000    -6.486000000
H     4.403000000     1.160000000    -7.771000000
O     1.210000000    -0.029000000     4.614000000
H     0.784000000    -0.884000000     4.560000000
H     0.487000000     0.599000000     4.620000000
O    -2.858000000     0.559000000     6.130000000
H    -2.137000000     0.949000000     5.636000000
H    -3.167000000     1.265000000     6.698000000
O     3.100000000     0.292000000     2.753000000
H     2.716000000    -0.160000000     2.002000000
H     2.435000000     0.225000000     3.438000000
