158
-3024.24233
C     0.434000000     1.383000000     0.334000000
H     0.731000000     2.367000000     0.688000000
C    -0.378000000     0.549000000     1.114000000
H    -0.533000000     0.842000000     2.149000000
C    -0.788000000    -0.715000000     0.701000000
H    -1.432000000    -1.460000000     1.147000000
C    -0.380000000    -1.126000000    -0.571000000
H    -0.729000000    -2.080000000    -0.957000000
C     0.445000000    -0.305000000    -1.378000000
H     0.796000000    -0.641000000    -2.350000000
C     0.864000000     0.995000000    -0.937000000
C     1.815000000     1.858000000    -1.716000000
O     2.437000000     2.802000000    -1.181000000
O     2.381000000     1.343000000    -2.650000000
O     3.197000000     3.756000000    -3.973000000
H     3.225000000     3.263000000    -4.793000000
H     2.814000000     3.147000000    -3.341000000
O     1.427000000     5.018000000    -0.407000000
H     1.790000000     4.246000000    -0.841000000
H     0.676000000     4.685000000     0.085000000
O    -0.852000000     3.555000000    -2.020000000
H    -0.578000000     4.471000000    -1.964000000
H    -0.618000000     3.289000000    -2.909000000
O    -0.979000000    -7.077000000     0.568000000
H    -1.389000000    -6.348000000     0.102000000
H    -1.109000000    -6.874000000     1.494000000
O     1.734000000     7.484000000    -1.130000000
H     2.646000000     7.652000000    -0.893000000
H     1.541000000     6.628000000    -0.747000000
O     0.624000000     6.223000000    -3.320000000
H     1.086000000     6.411000000    -2.503000000
H     0.960000000     6.870000000    -3.940000000
O     3.529000000    -2.561000000    -4.008000000
H     3.862000000    -2.349000000    -3.136000000
H     4.249000000    -2.341000000    -4.600000000
O    -0.084000000     3.920000000    -4.758000000
H     0.185000000     4.753000000    -4.370000000
H    -0.302000000     4.137000000    -5.664000000
O    -2.906000000    -5.624000000    -0.730000000
H    -2.917000000    -4.774000000    -1.170000000
H    -3.790000000    -5.721000000    -0.376000000
O     5.081000000     3.300000000    -0.885000000
H     4.130000000     3.218000000    -0.820000000
H     5.282000000     4.127000000    -0.446000000
O     0.526000000    -3.664000000    -2.536000000
H     1.014000000    -2.906000000    -2.216000000
H     1.059000000    -4.008000000    -3.252000000
O    -5.564000000     1.047000000     0.636000000
H    -4.676000000     0.824000000     0.357000000
H    -5.468000000     1.877000000     1.103000000
O     5.039000000    -0.422000000     1.303000000
H     4.858000000    -0.135000000     0.408000000
H     4.205000000    -0.777000000     1.613000000
O    -1.409000000    -0.956000000     3.868000000
H    -1.918000000    -0.252000000     4.269000000
H    -1.965000000    -1.281000000     3.160000000
O    -2.862000000     1.229000000     4.702000000
H    -2.724000000     1.926000000     5.345000000
H    -2.846000000     1.677000000     3.856000000
O    -0.289000000     4.868000000     3.680000000
H     0.520000000     4.826000000     3.171000000
H    -0.018000000     4.674000000     4.577000000
O     0.621000000    -0.883000000     5.748000000
H    -0.027000000    -0.821000000     5.047000000
H     1.074000000    -0.040000000     5.731000000
O    -3.896000000    -1.875000000     2.603000000
H    -4.490000000    -1.572000000     3.289000000
H    -4.473000000    -2.127000000     1.881000000
O    -6.124000000    -1.592000000     0.934000000
H    -6.860000000    -1.711000000     1.534000000
H    -5.874000000    -0.674000000     1.042000000
O    -2.569000000     0.393000000    -2.176000000
H    -2.653000000     1.046000000    -1.481000000
H    -1.847000000    -0.168000000    -1.892000000
O     3.725000000     6.306000000    -3.552000000
H     3.504000000     5.379000000    -3.645000000
H     3.157000000     6.618000000    -2.847000000
O    -4.967000000    -0.942000000    -2.389000000
H    -4.900000000    -1.566000000    -3.111000000
H    -4.074000000    -0.622000000    -2.265000000
O    -4.477000000    -3.009000000    -4.185000000
H    -3.523000000    -2.987000000    -4.105000000
H    -4.644000000    -2.820000000    -5.108000000
O    -1.558000000    -4.592000000     5.791000000
H    -1.436000000    -5.042000000     4.955000000
H    -0.670000000    -4.450000000     6.118000000
O    -6.590000000    -1.182000000     3.803000000
H    -6.986000000    -0.312000000     3.770000000
H    -6.062000000    -1.174000000     4.602000000
O     4.850000000    -3.054000000    -1.511000000
H     4.009000000    -3.158000000    -1.065000000
H     5.448000000    -2.752000000    -0.827000000
O     7.391000000    -0.356000000    -2.540000000
H     7.972000000     0.168000000    -3.091000000
H     6.519000000     0.004000000    -2.699000000
O     4.874000000     0.845000000    -2.668000000
H     5.035000000     1.705000000    -2.278000000
H     3.922000000     0.802000000    -2.767000000
O    -2.483000000     3.155000000     2.758000000
H    -3.220000000     3.447000000     3.294000000
H    -1.735000000     3.652000000     3.088000000
O    -1.220000000     5.844000000     1.019000000
H    -0.786000000     5.751000000     1.867000000
H    -2.149000000     5.928000000     1.233000000
O     1.622000000    -6.159000000     1.329000000
H     0.804000000    -6.541000000     1.012000000
H     1.730000000    -6.522000000     2.208000000
O    -3.476000000    -3.080000000     6.807000000
H    -2.867000000    -3.547000000     6.234000000
H    -4.194000000    -3.698000000     6.946000000
O     1.894000000    -0.091000000    -4.812000000
H     2.208000000     0.229000000    -3.966000000
H     2.318000000    -0.943000000    -4.917000000
O     0.702000000    -2.883000000     3.087000000
H     0.553000000    -2.255000000     3.794000000
H    -0.142000000    -3.320000000     2.974000000
O    -0.582000000     1.006000000    -5.435000000
H     0.297000000     0.627000000    -5.406000000
H    -0.505000000     1.827000000    -4.949000000
O     2.131000000     4.687000000     2.378000000
H     2.956000000     4.202000000     2.366000000
H     2.257000000     5.390000000     1.740000000
O     4.308000000     7.201000000    -0.139000000
H     4.787000000     7.984000000     0.132000000
H     4.919000000     6.481000000     0.014000000
O     3.929000000     2.451000000     1.329000000
H     4.683000000     2.455000000     0.741000000
H     3.184000000     2.247000000     0.763000000
O     7.381000000     2.114000000    -0.006000000
H     6.645000000     2.549000000    -0.436000000
H     8.121000000     2.254000000    -0.596000000
O    -1.618000000    -3.196000000    -4.363000000
H    -1.040000000    -2.794000000    -5.012000000
H    -1.038000000    -3.427000000    -3.638000000
O     2.969000000    -3.731000000     0.223000000
H     2.960000000    -3.031000000     0.875000000
H     2.227000000    -4.288000000     0.459000000
O     6.086000000     4.951000000    -3.509000000
H     5.917000000     4.248000000    -2.881000000
H     5.405000000     5.599000000    -3.332000000
O    -2.840000000     2.372000000    -0.307000000
H    -2.139000000     2.746000000    -0.841000000
H    -2.480000000     2.350000000     0.580000000
O    -3.242000000     0.861000000    -4.895000000
H    -3.166000000     0.377000000    -4.073000000
H    -2.383000000     0.768000000    -5.307000000
O     3.107000000     2.185000000    -6.304000000
H     3.875000000     1.749000000    -6.673000000
H     2.610000000     1.482000000    -5.886000000
O     1.411000000    -4.296000000    -5.062000000
H     1.836000000    -3.584000000    -5.541000000
H     1.021000000    -4.844000000    -5.744000000
O     2.566000000    -1.404000000     1.619000000
H     1.906000000    -1.880000000     2.122000000
H     2.061000000    -0.871000000     1.004000000
O    -1.956000000     2.923000000     6.555000000
H    -1.275000000     3.196000000     5.940000000
H    -1.859000000     3.517000000     7.299000000
