158
-3049.97403
C     1.388000000     0.483000000    -0.029000000
H     2.392000000     0.890000000     0.057000000
C     0.292000000     1.183000000     0.533000000
H     0.390000000     2.111000000     1.091000000
C    -0.982000000     0.557000000     0.527000000
H    -1.814000000     1.066000000     1.111000000
C    -1.152000000    -0.606000000    -0.138000000
H    -2.140000000    -1.057000000    -0.109000000
C    -0.080000000    -1.244000000    -0.730000000
H    -0.202000000    -2.194000000    -1.245000000
C     1.238000000    -0.706000000    -0.692000000
C     2.337000000    -1.458000000    -1.436000000
O     3.429000000    -0.880000000    -1.652000000
O     2.227000000    -2.609000000    -1.839000000
O     4.344000000    -6.381000000    -3.408000000
H     5.162000000    -6.874000000    -3.471000000
H     4.566000000    -5.617000000    -2.875000000
O    -1.110000000    -2.126000000    -4.830000000
H    -1.041000000    -1.368000000    -5.411000000
H    -1.237000000    -2.869000000    -5.420000000
O     7.047000000     0.243000000     0.470000000
H     6.284000000    -0.228000000     0.808000000
H     6.693000000     0.813000000    -0.212000000
O    -2.772000000    -2.113000000    -2.686000000
H    -3.217000000    -1.290000000    -2.485000000
H    -2.078000000    -1.867000000    -3.299000000
O     2.607000000     6.214000000     0.789000000
H     3.429000000     6.206000000     1.280000000
H     2.668000000     5.455000000     0.208000000
O     8.387000000    -0.124000000    -3.381000000
H     7.610000000    -0.508000000    -2.974000000
H     8.806000000     0.371000000    -2.678000000
O    -4.283000000     6.492000000    -0.025000000
H    -4.721000000     5.659000000    -0.199000000
H    -4.843000000     6.927000000     0.618000000
O     5.997000000    -0.848000000    -2.292000000
H     6.301000000    -1.580000000    -1.754000000
H     5.060000000    -0.787000000    -2.105000000
O     2.766000000     0.787000000     3.180000000
H     2.677000000    -0.119000000     2.883000000
H     3.207000000     1.233000000     2.458000000
O    -1.268000000     0.019000000     6.740000000
H    -1.176000000     0.520000000     7.551000000
H    -0.571000000     0.348000000     6.173000000
O    -7.274000000     1.163000000     1.042000000
H    -7.277000000     1.124000000     1.998000000
H    -6.411000000     0.834000000     0.791000000
O     2.556000000     1.612000000    -2.900000000
H     2.682000000     1.221000000    -3.765000000
H     2.968000000     0.995000000    -2.295000000
O     7.125000000    -3.223000000    -1.611000000
H     7.825000000    -3.793000000    -1.929000000
H     6.330000000    -3.750000000    -1.692000000
O    -4.619000000    -2.427000000     0.768000000
H    -5.322000000    -2.868000000     0.292000000
H    -4.414000000    -3.017000000     1.493000000
O     0.976000000    -3.709000000    -3.717000000
H     1.530000000    -3.259000000    -3.079000000
H     0.291000000    -3.075000000    -3.928000000
O    -4.816000000    -2.085000000    -4.563000000
H    -4.487000000    -2.381000000    -5.412000000
H    -4.123000000    -2.314000000    -3.944000000
O     3.339000000     3.130000000     4.505000000
H     3.392000000     2.330000000     3.983000000
H     2.784000000     2.894000000     5.248000000
O    -0.401000000     4.274000000     0.321000000
H    -0.170000000     5.201000000     0.373000000
H    -0.848000000     4.091000000     1.147000000
O    -1.027000000     3.644000000    -4.182000000
H    -1.080000000     3.116000000    -3.385000000
H    -0.640000000     3.058000000    -4.832000000
O    -2.459000000     5.044000000     5.103000000
H    -3.359000000     4.969000000     4.787000000
H    -2.234000000     5.965000000     4.970000000
O    -5.551000000     2.103000000     5.021000000
H    -4.722000000     1.813000000     4.642000000
H    -5.475000000     1.893000000     5.952000000
O     1.220000000     7.067000000     3.031000000
H     0.865000000     6.186000000     3.153000000
H     1.536000000     7.075000000     2.127000000
O     4.546000000    -4.044000000    -1.994000000
H     3.874000000    -3.371000000    -2.100000000
H     4.616000000    -4.167000000    -1.048000000
O     0.868000000    -4.198000000    -0.151000000
H     1.517000000    -3.746000000    -0.690000000
H     0.060000000    -4.156000000    -0.663000000
O    -1.989000000    -5.446000000     1.588000000
H    -1.875000000    -4.983000000     0.758000000
H    -1.528000000    -6.276000000     1.465000000
O     6.574000000     1.820000000    -1.989000000
H     6.301000000     0.991000000    -2.381000000
H     6.305000000     2.485000000    -2.623000000
O     0.576000000     1.807000000     4.487000000
H     1.165000000     1.113000000     4.190000000
H     0.889000000     2.594000000     4.041000000
O    -6.530000000     2.415000000    -1.592000000
H    -7.337000000     1.941000000    -1.391000000
H    -5.885000000     1.729000000    -1.764000000
O    -3.238000000     1.423000000     3.935000000
H    -2.509000000     0.974000000     4.362000000
H    -3.526000000     0.818000000     3.252000000
O     4.853000000    -1.161000000     0.801000000
H     4.447000000    -0.762000000     0.032000000
H     4.227000000    -1.827000000     1.085000000
O     3.775000000     2.911000000     1.436000000
H     3.490000000     3.189000000     0.566000000
H     3.710000000     3.700000000     1.973000000
O     2.160000000     4.120000000    -1.043000000
H     2.246000000     3.503000000    -1.770000000
H     1.236000000     4.074000000    -0.799000000
O     6.142000000     1.660000000     2.984000000
H     5.773000000     2.520000000     2.782000000
H     6.702000000     1.457000000     2.234000000
O    -1.671000000     2.679000000    -1.552000000
H    -1.329000000     3.203000000    -0.828000000
H    -1.513000000     1.773000000    -1.287000000
O    -1.909000000     3.756000000     2.552000000
H    -2.347000000     2.906000000     2.598000000
H    -2.174000000     4.207000000     3.354000000
O    -0.010000000    -6.202000000    -4.182000000
H    -0.116000000    -5.768000000    -5.028000000
H     0.392000000    -5.539000000    -3.621000000
O    -0.149000000    -7.227000000     0.304000000
H    -0.277000000    -7.866000000    -0.396000000
H     0.378000000    -6.535000000    -0.096000000
O     0.070000000    -4.758000000     3.298000000
H    -0.149000000    -4.043000000     3.896000000
H    -0.613000000    -4.728000000     2.628000000
O    -1.597000000    -4.294000000    -1.732000000
H    -1.913000000    -3.412000000    -1.929000000
H    -2.392000000    -4.823000000    -1.662000000
O     4.709000000    -2.156000000    -4.855000000
H     5.261000000    -1.958000000    -4.098000000
H     4.480000000    -3.080000000    -4.749000000
O     3.194000000    -0.432000000    -6.488000000
H     3.425000000    -1.198000000    -5.962000000
H     3.828000000     0.237000000    -6.228000000
O     2.317000000    -2.387000000     2.228000000
H     2.173000000    -2.868000000     3.043000000
H     1.673000000    -2.749000000     1.619000000
O    -1.229000000    -0.436000000     3.298000000
H    -1.022000000    -1.277000000     3.707000000
H    -0.982000000    -0.549000000     2.380000000
O    -4.508000000     0.212000000     0.565000000
H    -4.302000000     0.477000000    -0.331000000
H    -4.625000000    -0.737000000     0.514000000
O    -3.960000000     1.311000000    -2.366000000
H    -3.414000000     2.063000000    -2.139000000
H    -3.769000000     1.146000000    -3.290000000
O    -6.188000000     4.414000000     0.100000000
H    -6.412000000     3.665000000    -0.452000000
H    -6.315000000     4.099000000     0.995000000
O     4.298000000    -5.733000000     0.249000000
H     3.772000000    -5.498000000     1.013000000
H     4.950000000    -6.347000000     0.586000000
O     2.177000000    -6.603000000    -1.476000000
H     2.749000000    -6.216000000    -2.140000000
H     2.394000000    -6.133000000    -0.671000000
