158
-3012.56687
C     1.060000000     0.661000000    -0.711000000
H     1.959000000     1.171000000    -1.050000000
C     0.289000000     1.241000000     0.282000000
H     0.420000000     2.228000000     0.717000000
C    -0.741000000     0.472000000     0.795000000
H    -1.193000000     0.765000000     1.767000000
C    -1.015000000    -0.817000000     0.359000000
H    -1.850000000    -1.367000000     0.785000000
C    -0.258000000    -1.366000000    -0.661000000
H    -0.416000000    -2.399000000    -0.958000000
C     0.798000000    -0.609000000    -1.168000000
C     1.829000000    -1.281000000    -2.069000000
O     2.874000000    -0.719000000    -2.446000000
O     1.631000000    -2.423000000    -2.290000000
O     0.987000000    -4.752000000    -2.158000000
H     1.281000000    -3.853000000    -2.007000000
H     0.140000000    -4.804000000    -1.715000000
O     6.341000000     0.618000000    -4.887000000
H     7.019000000     0.244000000    -4.323000000
H     5.517000000     0.365000000    -4.471000000
O    -3.462000000     2.998000000    -0.777000000
H    -3.395000000     2.988000000    -1.732000000
H    -3.220000000     2.111000000    -0.510000000
O    -3.574000000    -3.261000000    -0.616000000
H    -4.503000000    -3.037000000    -0.556000000
H    -3.130000000    -2.582000000    -0.107000000
O     6.773000000    -4.164000000    -3.571000000
H     5.895000000    -3.857000000    -3.343000000
H     6.862000000    -4.999000000    -3.111000000
O    -6.205000000    -2.615000000    -0.802000000
H    -6.732000000    -3.183000000    -1.364000000
H    -6.789000000    -2.383000000    -0.081000000
O     4.527000000    -3.036000000    -2.625000000
H     4.114000000    -3.771000000    -2.171000000
H     3.837000000    -2.376000000    -2.689000000
O     1.645000000     3.546000000    -1.886000000
H     1.036000000     2.979000000    -2.359000000
H     1.412000000     4.432000000    -2.162000000
O    -3.642000000    -0.245000000    -0.942000000
H    -2.989000000     0.101000000    -1.550000000
H    -4.248000000    -0.738000000    -1.495000000
O     0.022000000     1.119000000    -6.431000000
H     0.257000000     1.555000000    -5.612000000
H     0.117000000     0.185000000    -6.241000000
O     2.647000000     0.120000000    -5.172000000
H     1.807000000    -0.339000000    -5.159000000
H     3.029000000    -0.056000000    -4.313000000
O     3.325000000    -0.515000000    -7.805000000
H     2.879000000    -0.453000000    -6.960000000
H     4.247000000    -0.640000000    -7.582000000
O    -0.463000000    -7.701000000    -2.038000000
H    -0.958000000    -7.980000000    -2.808000000
H    -0.499000000    -6.745000000    -2.063000000
O    -1.781000000    -2.849000000    -3.713000000
H    -2.619000000    -3.065000000    -3.302000000
H    -1.357000000    -3.695000000    -3.851000000
O    -2.467000000     0.323000000     4.215000000
H    -2.710000000     0.239000000     3.292000000
H    -3.274000000     0.600000000     4.650000000
O    -2.874000000    -2.886000000     5.505000000
H    -1.922000000    -2.815000000     5.570000000
H    -3.205000000    -2.308000000     6.193000000
O    -1.917000000    -5.315000000    -1.774000000
H    -2.502000000    -4.590000000    -1.554000000
H    -2.402000000    -6.100000000    -1.518000000
O    -0.546000000    -5.146000000     1.511000000
H    -0.652000000    -5.791000000     0.812000000
H    -1.220000000    -5.374000000     2.151000000
O     7.123000000    -1.151000000    -2.210000000
H     7.334000000    -1.827000000    -2.854000000
H     6.173000000    -1.047000000    -2.275000000
O    -0.683000000     5.850000000     2.159000000
H    -0.778000000     6.170000000     1.262000000
H     0.029000000     6.374000000     2.527000000
O     3.943000000    -0.291000000     0.520000000
H     3.184000000    -0.702000000     0.932000000
H     3.749000000    -0.313000000    -0.417000000
O    -5.100000000    -1.967000000     2.991000000
H    -4.236000000    -2.179000000     3.347000000
H    -4.951000000    -1.195000000     2.445000000
O     2.208000000     1.070000000     5.865000000
H     1.354000000     0.652000000     5.752000000
H     2.337000000     1.098000000     6.813000000
O    -4.161000000     0.297000000     1.668000000
H    -4.721000000     1.072000000     1.623000000
H    -3.997000000     0.067000000     0.754000000
O     4.151000000     3.428000000    -3.165000000
H     3.264000000     3.517000000    -2.817000000
H     4.505000000     4.317000000    -3.148000000
O     3.868000000    -0.638000000     3.535000000
H     3.607000000    -0.276000000     4.382000000
H     3.063000000    -0.639000000     3.017000000
O     1.718000000    -1.525000000     2.032000000
H     1.782000000    -2.480000000     2.052000000
H     1.003000000    -1.345000000     1.422000000
O     2.716000000     2.767000000     3.771000000
H     3.341000000     2.344000000     3.183000000
H     2.432000000     2.069000000     4.361000000
O     6.836000000    -0.813000000     0.571000000
H     6.971000000    -0.736000000    -0.374000000
H     5.886000000    -0.867000000     0.673000000
O     4.876000000     1.918000000     2.169000000
H     4.685000000     0.985000000     2.074000000
H     5.047000000     2.220000000     1.277000000
O    -3.392000000     5.857000000    -0.639000000
H    -3.155000000     4.933000000    -0.566000000
H    -4.119000000     5.869000000    -1.261000000
O    -1.541000000     4.387000000     4.633000000
H    -1.090000000     4.529000000     3.801000000
H    -2.391000000     4.813000000     4.520000000
O     4.883000000     0.892000000    -2.410000000
H     4.757000000     1.837000000    -2.319000000
H     4.003000000     0.524000000    -2.327000000
O     2.474000000    -3.089000000    -4.785000000
H     2.461000000    -3.200000000    -3.834000000
H     3.398000000    -3.163000000    -5.023000000
O    -0.226000000     0.053000000     5.852000000
H    -0.005000000    -0.875000000     5.773000000
H    -1.037000000     0.150000000     5.352000000
O     0.732000000    -6.027000000    -4.950000000
H     1.117000000    -5.750000000    -4.119000000
H     1.420000000    -5.872000000    -5.597000000
O    -2.089000000     0.490000000    -3.518000000
H    -2.509000000     0.237000000    -4.340000000
H    -1.463000000    -0.212000000    -3.342000000
O     3.614000000    -5.413000000    -1.583000000
H     3.738000000    -5.960000000    -0.808000000
H     2.712000000    -5.098000000    -1.512000000
O    -5.381000000     2.604000000     1.843000000
H    -6.151000000     3.082000000     1.533000000
H    -4.705000000     3.275000000     1.935000000
O     3.402000000     2.820000000    -6.009000000
H     3.755000000     3.403000000    -5.336000000
H     3.193000000     2.012000000    -5.540000000
O     2.019000000    -4.379000000     1.836000000
H     2.337000000    -5.230000000     1.535000000
H     1.073000000    -4.413000000     1.694000000
O    -1.526000000     2.317000000     7.224000000
H    -2.005000000     2.741000000     6.513000000
H    -1.082000000     1.579000000     6.807000000
O    -0.046000000     2.628000000    -3.919000000
H    -0.528000000     3.395000000    -4.226000000
H    -0.705000000     2.090000000    -3.481000000
O     1.000000000     4.088000000     5.872000000
H     0.204000000     4.233000000     5.360000000
H     1.619000000     3.707000000     5.250000000
O    -4.781000000     1.640000000     5.390000000
H    -5.726000000     1.518000000     5.297000000
H    -4.668000000     2.587000000     5.464000000
O     0.200000000    -1.596000000    -5.076000000
H    -0.570000000    -1.959000000    -4.639000000
H     0.921000000    -2.162000000    -4.800000000
O     3.927000000     4.843000000     2.735000000
H     3.478000000     4.101000000     3.140000000
H     3.242000000     5.500000000     2.610000000
O     3.186000000     4.811000000     0.003000000
H     2.945000000     4.177000000    -0.672000000
H     2.499000000     4.730000000     0.664000000
