158
-3014.05239
C     0.998000000     0.633000000    -0.875000000
H     1.586000000     1.209000000    -1.585000000
C     0.366000000     1.348000000     0.126000000
H     0.559000000     2.415000000     0.193000000
C    -0.669000000     0.686000000     0.819000000
H    -1.330000000     1.261000000     1.470000000
C    -0.880000000    -0.634000000     0.544000000
H    -1.625000000    -1.192000000     1.104000000
C    -0.171000000    -1.393000000    -0.340000000
H    -0.420000000    -2.448000000    -0.430000000
C     0.853000000    -0.771000000    -1.052000000
C     1.651000000    -1.568000000    -2.145000000
O     2.519000000    -0.923000000    -2.787000000
O     1.451000000    -2.740000000    -2.300000000
O     0.425000000    -5.123000000    -1.041000000
H     0.581000000    -4.257000000    -1.418000000
H    -0.491000000    -5.312000000    -1.245000000
O    -3.924000000     3.186000000    -0.666000000
H    -3.470000000     2.356000000    -0.515000000
H    -3.482000000     3.566000000    -1.426000000
O    -3.836000000    -3.091000000     0.245000000
H    -4.361000000    -3.398000000     0.984000000
H    -3.712000000    -2.156000000     0.411000000
O     7.110000000    -1.461000000    -5.151000000
H     6.252000000    -1.290000000    -4.762000000
H     7.475000000    -2.171000000    -4.624000000
O     4.589000000    -1.500000000    -4.145000000
H     3.834000000    -1.385000000    -3.568000000
H     4.539000000    -2.414000000    -4.426000000
O    -2.332000000     1.043000000    -1.632000000
H    -2.370000000     0.978000000    -2.586000000
H    -1.476000000     0.682000000    -1.402000000
O    -2.418000000    -2.964000000     5.091000000
H    -2.059000000    -3.559000000     4.433000000
H    -2.320000000    -3.436000000     5.919000000
O     2.560000000     0.426000000    -5.328000000
H     2.053000000    -0.381000000    -5.419000000
H     2.634000000     0.557000000    -4.383000000
O     1.427000000    -2.026000000    -5.654000000
H     1.639000000    -2.545000000    -4.878000000
H     1.928000000    -2.435000000    -6.360000000
O     0.470000000    -7.878000000    -2.445000000
H     0.531000000    -6.954000000    -2.200000000
H    -0.291000000    -7.921000000    -3.024000000
O     1.263000000    -6.978000000    -5.761000000
H     0.696000000    -6.292000000    -5.409000000
H     2.149000000    -6.628000000    -5.666000000
O    -4.118000000    -0.215000000     3.717000000
H    -4.192000000     0.737000000     3.779000000
H    -3.251000000    -0.411000000     4.073000000
O     2.074000000     5.825000000     2.180000000
H     2.232000000     4.882000000     2.148000000
H     1.131000000     5.905000000     2.319000000
O    -2.450000000    -5.366000000    -1.053000000
H    -2.871000000    -4.602000000    -0.659000000
H    -2.939000000    -6.113000000    -0.708000000
O    -0.439000000    -1.023000000    -7.516000000
H    -0.062000000    -0.874000000    -8.383000000
H     0.297000000    -1.320000000    -6.981000000
O     0.535000000    -6.380000000     1.506000000
H     1.443000000    -6.236000000     1.771000000
H     0.503000000    -6.093000000     0.593000000
O     6.768000000     0.509000000    -2.699000000
H     6.377000000     0.614000000    -3.567000000
H     6.042000000     0.653000000    -2.091000000
O    -2.223000000     5.825000000     2.551000000
H    -1.716000000     6.631000000     2.644000000
H    -3.061000000     6.109000000     2.187000000
O     4.698000000    -3.227000000     2.293000000
H     3.979000000    -2.599000000     2.222000000
H     5.398000000    -2.742000000     2.730000000
O     4.046000000    -0.667000000     0.421000000
H     3.896000000     0.183000000     0.006000000
H     3.212000000    -0.880000000     0.838000000
O    -5.163000000    -3.578000000     2.827000000
H    -4.991000000    -4.373000000     3.332000000
H    -4.575000000    -2.923000000     3.203000000
O    -4.130000000    -0.068000000     0.331000000
H    -4.448000000     0.608000000     0.931000000
H    -3.392000000     0.342000000    -0.121000000
O     2.915000000     3.885000000    -2.880000000
H     2.689000000     3.809000000    -3.807000000
H     3.817000000     4.203000000    -2.879000000
O     2.136000000     0.662000000     3.338000000
H     2.739000000    -0.016000000     3.643000000
H     1.613000000     0.232000000     2.663000000
O     1.937000000    -1.799000000     1.737000000
H     1.735000000    -2.545000000     2.302000000
H     1.161000000    -1.701000000     1.184000000
O     0.308000000     1.205000000     5.512000000
H     1.046000000     1.055000000     4.921000000
H     0.477000000     0.628000000     6.257000000
O     6.398000000    -1.702000000     0.148000000
H     6.249000000    -2.625000000     0.355000000
H     5.521000000    -1.337000000     0.035000000
O    -5.225000000    -1.013000000    -2.627000000
H    -5.986000000    -1.553000000    -2.840000000
H    -5.070000000    -1.175000000    -1.696000000
O     2.629000000     3.000000000     2.388000000
H     2.324000000     2.196000000     2.807000000
H     3.338000000     2.717000000     1.811000000
O    -0.991000000     6.498000000    -1.281000000
H    -0.046000000     6.428000000    -1.418000000
H    -1.123000000     6.217000000    -0.376000000
O    -5.178000000    -4.143000000    -2.079000000
H    -4.486000000    -3.706000000    -1.582000000
H    -4.717000000    -4.795000000    -2.608000000
O     3.699000000    -5.837000000    -5.056000000
H     4.323000000    -5.315000000    -5.560000000
H     3.402000000    -5.250000000    -4.360000000
O    -2.762000000     3.179000000     3.257000000
H    -3.518000000     2.843000000     2.776000000
H    -2.728000000     4.108000000     3.031000000
O     4.015000000     1.338000000    -1.738000000
H     3.488000000     2.113000000    -1.935000000
H     3.620000000     0.640000000    -2.260000000
O     3.415000000    -4.189000000    -2.881000000
H     3.535000000    -4.696000000    -2.078000000
H     2.615000000    -3.686000000    -2.730000000
O    -1.916000000    -0.235000000     5.493000000
H    -1.969000000    -1.172000000     5.301000000
H    -1.030000000     0.014000000     5.230000000
O    -0.677000000    -5.084000000    -4.861000000
H    -1.276000000    -5.161000000    -4.118000000
H    -1.100000000    -4.455000000    -5.446000000
O     3.251000000    -5.683000000    -0.609000000
H     3.288000000    -6.110000000     0.247000000
H     2.320000000    -5.507000000    -0.748000000
O    -5.082000000     2.395000000     1.733000000
H    -6.008000000     2.591000000     1.874000000
H    -4.865000000     2.839000000     0.913000000
O     2.330000000     3.117000000     6.684000000
H     2.766000000     3.704000000     6.067000000
H     1.500000000     2.898000000     6.262000000
O     3.696000000     2.502000000    -6.705000000
H     3.606000000     3.317000000    -6.211000000
H     3.144000000     1.876000000    -6.236000000
O     1.239000000    -4.076000000     2.711000000
H     0.326000000    -4.036000000     2.425000000
H     1.244000000    -4.738000000     3.403000000
O    -1.530000000    -4.625000000     2.574000000
H    -2.423000000    -4.679000000     2.234000000
H    -1.089000000    -5.393000000     2.209000000
O    -0.964000000     3.511000000     5.211000000
H    -1.540000000     3.372000000     4.459000000
H    -0.630000000     2.639000000     5.420000000
O    -4.452000000     2.259000000     5.596000000
H    -3.541000000     2.347000000     5.313000000
H    -4.701000000     3.139000000     5.879000000
O    -1.321000000    -0.449000000    -4.404000000
H    -2.052000000    -1.056000000    -4.519000000
H    -0.559000000    -0.928000000    -4.730000000
O     1.770000000     6.285000000    -1.791000000
H     2.237000000     5.467000000    -1.965000000
H     2.212000000     6.655000000    -1.027000000
O     6.347000000    -3.665000000    -2.540000000
H     6.096000000    -3.940000000    -1.658000000
H     5.551000000    -3.282000000    -2.908000000
