158
-3038.18362
C     1.024000000    -0.489000000     0.960000000
H     1.831000000    -0.749000000     1.641000000
C     1.262000000     0.379000000    -0.105000000
H     2.266000000     0.721000000    -0.341000000
C     0.216000000     0.759000000    -0.893000000
H     0.384000000     1.591000000    -1.646000000
C    -1.032000000     0.312000000    -0.653000000
H    -1.819000000     0.679000000    -1.307000000
C    -1.320000000    -0.560000000     0.385000000
H    -2.349000000    -0.870000000     0.549000000
C    -0.302000000    -0.938000000     1.256000000
C    -0.706000000    -2.004000000     2.323000000
O    -1.818000000    -2.097000000     2.763000000
O     0.215000000    -2.696000000     2.720000000
O     2.923000000     2.641000000    -5.130000000
H     2.830000000     2.221000000    -4.275000000
H     3.846000000     2.891000000    -5.175000000
O     4.115000000     3.811000000     1.278000000
H     4.735000000     4.540000000     1.300000000
H     3.267000000     4.223000000     1.112000000
O    -4.523000000     3.052000000    -0.219000000
H    -3.606000000     3.300000000    -0.336000000
H    -4.967000000     3.873000000    -0.007000000
O     5.556000000     1.883000000    -0.467000000
H     4.959000000     2.353000000     0.116000000
H     6.416000000     1.986000000    -0.061000000
O    -1.461000000    -0.561000000     5.221000000
H    -2.215000000    -0.146000000     5.641000000
H    -1.844000000    -1.195000000     4.615000000
O    -5.609000000     0.437000000    -4.232000000
H    -5.613000000     0.513000000    -3.278000000
H    -6.516000000     0.232000000    -4.460000000
O     5.550000000    -2.228000000    -2.555000000
H     5.370000000    -1.623000000    -3.275000000
H     4.720000000    -2.292000000    -2.083000000
O    -0.819000000    -5.072000000     3.527000000
H    -0.656000000    -4.129000000     3.490000000
H    -0.136000000    -5.410000000     4.106000000
O     0.442000000    -1.926000000    -2.168000000
H     0.363000000    -2.844000000    -1.911000000
H     0.230000000    -1.435000000    -1.374000000
O     1.301000000    -2.684000000     5.093000000
H     2.063000000    -2.180000000     4.808000000
H     0.664000000    -2.576000000     4.387000000
O     0.075000000    -4.173000000    -0.856000000
H    -0.831000000    -4.477000000    -0.802000000
H     0.396000000    -4.214000000     0.045000000
O     0.303000000     5.604000000    -3.771000000
H     0.001000000     6.253000000    -3.136000000
H    -0.409000000     4.965000000    -3.817000000
O     1.042000000    -6.226000000     5.781000000
H     1.403000000    -7.005000000     5.356000000
H     1.626000000    -5.516000000     5.515000000
O     1.874000000     1.616000000     4.072000000
H     1.096000000     2.173000000     4.064000000
H     1.557000000     0.765000000     4.372000000
O    -6.007000000     0.116000000     3.754000000
H    -5.235000000    -0.400000000     3.989000000
H    -5.715000000     0.667000000     3.028000000
O     0.654000000     3.904000000    -6.818000000
H     0.144000000     4.080000000    -6.027000000
H     1.522000000     3.662000000    -6.494000000
O     0.106000000     2.069000000    -4.504000000
H     0.543000000     2.000000000    -5.353000000
H     0.151000000     1.185000000    -4.139000000
O    -4.078000000    -1.795000000     4.198000000
H    -4.162000000    -2.681000000     4.552000000
H    -3.273000000    -1.820000000     3.680000000
O    -0.747000000    -4.652000000     6.923000000
H    -0.062000000    -5.054000000     6.389000000
H    -1.214000000    -5.392000000     7.310000000
O    -0.444000000    -6.271000000     1.201000000
H    -0.771000000    -5.938000000     2.037000000
H     0.381000000    -6.704000000     1.422000000
O     0.975000000     6.366000000    -0.365000000
H     1.371000000     7.226000000    -0.228000000
H     0.168000000     6.388000000     0.149000000
O    -2.796000000    -2.479000000    -4.556000000
H    -3.360000000    -3.172000000    -4.899000000
H    -3.136000000    -2.306000000    -3.678000000
O    -4.651000000     1.623000000     2.026000000
H    -3.870000000     1.917000000     2.495000000
H    -4.488000000     1.864000000     1.114000000
O     0.528000000     3.749000000     1.553000000
H     0.822000000     2.917000000     1.183000000
H    -0.337000000     3.890000000     1.169000000
O     3.151000000    -0.618000000    -2.742000000
H     2.342000000    -0.902000000    -2.318000000
H     3.214000000     0.315000000    -2.538000000
O    -0.405000000    -0.975000000    -4.468000000
H    -1.356000000    -1.046000000    -4.549000000
H    -0.206000000    -1.373000000    -3.620000000
O    -3.074000000    -3.080000000     6.680000000
H    -3.163000000    -2.188000000     7.015000000
H    -2.180000000    -3.333000000     6.909000000
O     1.820000000     1.090000000    -7.191000000
H     1.678000000     1.473000000    -8.057000000
H     2.600000000     1.535000000    -6.858000000
O     1.252000000    -1.305000000    -6.573000000
H     0.884000000    -1.148000000    -5.703000000
H     1.519000000    -0.439000000    -6.881000000
O    -3.781000000    -3.261000000     1.154000000
H    -3.600000000    -2.469000000     1.661000000
H    -3.236000000    -3.935000000     1.561000000
O    -4.355000000    -2.352000000    -1.660000000
H    -3.899000000    -2.664000000    -0.878000000
H    -4.643000000    -1.467000000    -1.433000000
O    -3.640000000    -5.446000000     3.298000000
H    -2.766000000    -5.263000000     3.643000000
H    -3.858000000    -6.310000000     3.647000000
O    -2.347000000     1.728000000     3.365000000
H    -2.030000000     0.845000000     3.175000000
H    -1.554000000     2.261000000     3.418000000
O     5.042000000    -0.176000000    -4.839000000
H     5.182000000    -1.017000000    -5.275000000
H     4.211000000    -0.281000000    -4.377000000
O     6.299000000     0.090000000     3.271000000
H     6.889000000     0.715000000     3.692000000
H     5.599000000     0.630000000     2.904000000
O    -1.578000000     3.817000000    -2.603000000
H    -0.974000000     3.152000000    -2.934000000
H    -2.394000000     3.656000000    -3.077000000
O     1.952000000    -3.991000000     1.345000000
H     1.302000000    -3.701000000     1.986000000
H     1.961000000    -4.944000000     1.428000000
O     0.275000000    -2.144000000     7.611000000
H     0.764000000    -2.039000000     6.795000000
H    -0.181000000    -2.980000000     7.511000000
O     4.621000000     5.394000000    -3.027000000
H     5.255000000     4.677000000    -3.044000000
H     3.976000000     5.129000000    -2.372000000
O     4.549000000    -1.741000000     1.313000000
H     5.383000000    -1.459000000     1.687000000
H     4.031000000    -2.023000000     2.067000000
O    -2.760000000     0.363000000    -5.969000000
H    -3.019000000    -0.513000000    -5.681000000
H    -3.302000000     0.956000000    -5.449000000
O     3.364000000    -3.001000000    -0.739000000
H     3.931000000    -2.402000000    -0.254000000
H     2.681000000    -3.242000000    -0.114000000
O     2.347000000     4.764000000    -1.853000000
H     1.775000000     4.693000000    -2.618000000
H     1.844000000     5.283000000    -1.225000000
O    -1.983000000     4.039000000     0.134000000
H    -1.876000000     3.803000000    -0.787000000
H    -1.864000000     4.989000000     0.153000000
O     3.568000000    -0.959000000     4.614000000
H     3.554000000    -0.105000000     4.182000000
H     4.043000000    -0.806000000     5.431000000
O    -5.353000000     0.321000000    -1.494000000
H    -5.076000000     1.108000000    -1.025000000
H    -6.181000000     0.076000000    -1.081000000
O     3.381000000     2.212000000    -2.192000000
H     4.311000000     2.109000000    -1.990000000
H     3.155000000     3.075000000    -1.845000000
O     4.359000000     1.803000000     3.001000000
H     4.345000000     2.474000000     2.319000000
H     3.474000000     1.812000000     3.365000000
