158
-3018.43836
C     0.919000000     0.123000000     1.135000000
H     1.572000000     0.303000000     1.985000000
C     0.405000000     1.213000000     0.426000000
H     0.554000000     2.190000000     0.880000000
C    -0.459000000     1.015000000    -0.615000000
H    -1.078000000     1.866000000    -1.016000000
C    -0.628000000    -0.297000000    -1.137000000
H    -1.323000000    -0.449000000    -1.958000000
C     0.059000000    -1.382000000    -0.538000000
H    -0.040000000    -2.404000000    -0.894000000
C     0.689000000    -1.205000000     0.703000000
C     1.331000000    -2.289000000     1.516000000
O     1.884000000    -2.074000000     2.581000000
O     1.258000000    -3.455000000     1.180000000
O     1.854000000    -4.504000000    -1.194000000
H     1.482000000    -4.119000000    -0.401000000
H     1.191000000    -5.126000000    -1.493000000
O    -1.696000000     0.422000000     4.761000000
H    -2.230000000    -0.372000000     4.793000000
H    -0.797000000     0.103000000     4.687000000
O    -4.010000000    -1.705000000    -1.571000000
H    -3.578000000    -1.613000000    -0.722000000
H    -4.604000000    -2.448000000    -1.458000000
O    -3.500000000    -1.194000000    -4.881000000
H    -3.100000000    -0.332000000    -4.771000000
H    -4.047000000    -1.307000000    -4.104000000
O     0.618000000    -5.337000000     5.882000000
H     0.153000000    -5.086000000     5.084000000
H     0.389000000    -4.658000000     6.516000000
O     2.381000000     5.264000000     1.992000000
H     2.549000000     5.629000000     2.861000000
H     1.437000000     5.366000000     1.868000000
O     0.891000000    -1.556000000    -4.501000000
H     0.479000000    -0.706000000    -4.346000000
H     0.285000000    -2.015000000    -5.083000000
O     3.216000000    -5.258000000     1.427000000
H     2.578000000    -4.545000000     1.430000000
H     3.948000000    -4.922000000     0.909000000
O     1.460000000     2.406000000    -2.441000000
H     1.649000000     1.899000000    -1.651000000
H     0.776000000     1.908000000    -2.888000000
O    -4.248000000     2.612000000     0.956000000
H    -4.983000000     2.064000000     0.679000000
H    -3.871000000     2.938000000     0.139000000
O    -4.200000000    -2.482000000     1.745000000
H    -4.428000000    -2.727000000     2.642000000
H    -3.740000000    -1.647000000     1.835000000
O    -1.796000000     2.830000000     2.113000000
H    -2.685000000     2.862000000     1.760000000
H    -1.714000000     1.947000000     2.474000000
O    -2.677000000    -4.735000000     1.131000000
H    -2.409000000    -4.760000000     0.213000000
H    -2.993000000    -3.841000000     1.264000000
O    -6.251000000     0.788000000     0.542000000
H    -6.924000000     1.420000000     0.289000000
H    -6.420000000     0.024000000    -0.008000000
O     4.404000000    -2.726000000     6.123000000
H     3.960000000    -3.193000000     5.415000000
H     3.925000000    -1.900000000     6.202000000
O    -2.390000000    -4.051000000    -1.421000000
H    -2.742000000    -4.847000000    -1.819000000
H    -3.026000000    -3.371000000    -1.641000000
O     3.541000000    -3.804000000     3.664000000
H     3.447000000    -4.437000000     2.953000000
H     2.875000000    -3.140000000     3.484000000
O    -3.079000000    -0.129000000     0.807000000
H    -2.337000000     0.298000000     0.379000000
H    -3.732000000     0.563000000     0.902000000
O    -0.691000000    -8.037000000     2.736000000
H    -0.220000000    -7.315000000     2.320000000
H    -1.528000000    -7.655000000     3.001000000
O    -6.224000000     5.539000000    -0.838000000
H    -5.421000000     5.292000000    -1.297000000
H    -6.574000000     6.271000000    -1.346000000
O     2.982000000    -0.542000000     6.049000000
H     2.231000000    -0.371000000     5.481000000
H     3.395000000     0.314000000     6.164000000
O     4.109000000     3.684000000    -2.921000000
H     3.201000000     3.412000000    -2.784000000
H     4.554000000     3.451000000    -2.106000000
O    -1.024000000     7.431000000    -2.805000000
H    -1.954000000     7.566000000    -2.623000000
H    -0.777000000     6.689000000    -2.253000000
O     4.795000000    -1.408000000     2.155000000
H     3.846000000    -1.488000000     2.249000000
H     5.047000000    -0.756000000     2.809000000
O    -0.718000000     1.802000000    -4.547000000
H    -0.904000000     2.678000000    -4.885000000
H    -0.948000000     1.214000000    -5.267000000
O     4.492000000     5.054000000    -0.047000000
H     4.968000000     4.225000000     0.016000000
H     3.963000000     5.087000000     0.749000000
O     3.024000000    -2.815000000    -3.200000000
H     2.816000000    -3.450000000    -2.515000000
H     2.174000000    -2.464000000    -3.467000000
O     4.360000000     0.459000000    -0.192000000
H     4.882000000     1.225000000     0.045000000
H     4.503000000    -0.159000000     0.525000000
O    -0.410000000    -4.103000000     3.193000000
H     0.169000000    -3.937000000     2.450000000
H    -1.102000000    -4.661000000     2.838000000
O     1.252000000     5.072000000    -1.929000000
H     1.685000000     4.239000000    -2.118000000
H     1.719000000     5.712000000    -2.467000000
O    -3.652000000    -4.068000000    -5.035000000
H    -2.988000000    -4.757000000    -5.055000000
H    -3.152000000    -3.256000000    -4.952000000
O    -3.134000000     3.317000000    -1.422000000
H    -3.084000000     2.540000000    -1.979000000
H    -3.563000000     3.976000000    -1.967000000
O    -4.862000000     4.128000000    -3.510000000
H    -5.555000000     3.518000000    -3.256000000
H    -4.513000000     3.768000000    -4.325000000
O    -0.728000000    -3.010000000     5.566000000
H    -1.644000000    -2.767000000     5.700000000
H    -0.663000000    -3.193000000     4.629000000
O    -6.581000000     1.789000000    -2.924000000
H    -6.930000000     0.903000000    -3.022000000
H    -7.326000000     2.362000000    -3.106000000
O     5.404000000     0.454000000     4.206000000
H     5.719000000     0.611000000     5.096000000
H     4.863000000     1.217000000     4.005000000
O    -4.123000000     0.818000000    -2.473000000
H    -5.033000000     1.112000000    -2.518000000
H    -4.176000000    -0.073000000    -2.130000000
O     5.992000000    -3.362000000     0.479000000
H     5.562000000    -2.764000000     1.090000000
H     6.593000000    -3.871000000     1.025000000
O    -0.880000000     6.648000000     1.683000000
H    -1.061000000     6.016000000     0.986000000
H    -1.593000000     7.284000000     1.620000000
O     0.913000000    -7.081000000     0.522000000
H     1.490000000    -6.354000000     0.752000000
H     1.506000000    -7.811000000     0.346000000
O     4.227000000    -7.513000000     2.821000000
H     3.864000000    -7.153000000     2.012000000
H     3.571000000    -7.311000000     3.489000000
O    -1.191000000     5.281000000    -0.526000000
H    -0.331000000     5.267000000    -0.946000000
H    -1.547000000     4.406000000    -0.679000000
O     4.401000000    -5.363000000    -1.223000000
H     4.946000000    -4.582000000    -1.319000000
H     3.521000000    -5.071000000    -1.458000000
O     0.741000000    -0.777000000     4.448000000
H     1.101000000    -1.236000000     3.688000000
H     0.357000000    -1.469000000     4.985000000
O     6.193000000    -3.818000000     3.738000000
H     6.599000000    -2.952000000     3.704000000
H     5.252000000    -3.641000000     3.727000000
O    -0.183000000    -5.338000000    -2.790000000
H    -0.738000000    -4.594000000    -2.555000000
H    -0.573000000    -6.082000000    -2.332000000
O    -0.617000000     4.759000000     3.909000000
H    -0.815000000     5.416000000     3.242000000
H    -0.802000000     3.922000000     3.484000000
O     3.800000000     2.868000000     3.240000000
H     3.891000000     3.435000000     4.006000000
H     2.864000000     2.878000000     3.044000000
