158
-3017.90975
C     0.065000000     0.612000000     1.308000000
H     0.022000000     1.282000000     2.163000000
C     0.005000000     1.309000000     0.111000000
H    -0.041000000     2.392000000     0.192000000
C    -0.067000000     0.599000000    -1.060000000
H    -0.093000000     1.056000000    -2.080000000
C    -0.050000000    -0.775000000    -1.021000000
H    -0.166000000    -1.402000000    -1.901000000
C     0.088000000    -1.492000000     0.138000000
H     0.219000000    -2.570000000     0.096000000
C     0.129000000    -0.802000000     1.349000000
C     0.452000000    -1.551000000     2.630000000
O     0.146000000    -1.089000000     3.726000000
O     0.773000000    -2.756000000     2.550000000
O     3.368000000    -4.346000000    -1.984000000
H     2.889000000    -4.372000000    -1.156000000
H     3.973000000    -5.086000000    -1.933000000
O    -4.313000000     1.530000000     4.385000000
H    -5.010000000     1.390000000     3.744000000
H    -3.599000000     0.964000000     4.090000000
O    -4.715000000    -1.292000000    -1.776000000
H    -3.963000000    -1.094000000    -1.218000000
H    -4.750000000    -0.566000000    -2.398000000
O    -4.000000000    -2.595000000    -4.189000000
H    -3.539000000    -3.193000000    -3.601000000
H    -4.525000000    -2.045000000    -3.608000000
O    -5.683000000     2.633000000    -0.202000000
H    -4.731000000     2.587000000    -0.119000000
H    -5.843000000     2.602000000    -1.145000000
O    -0.209000000    -1.740000000     6.304000000
H    -0.137000000    -1.662000000     5.353000000
H    -1.125000000    -1.535000000     6.493000000
O    -4.290000000     0.679000000    -3.696000000
H    -4.830000000     1.216000000    -4.275000000
H    -3.395000000     0.823000000    -4.001000000
O     4.739000000    -5.158000000     0.929000000
H     4.849000000    -5.838000000     0.265000000
H     3.793000000    -5.112000000     1.071000000
O     2.761000000    -0.195000000    -1.757000000
H     3.342000000    -0.939000000    -1.599000000
H     2.120000000    -0.236000000    -1.048000000
O    -1.183000000    -4.278000000     6.133000000
H    -0.555000000    -3.633000000     6.458000000
H    -1.087000000    -4.249000000     5.182000000
O    -0.466000000     4.980000000     4.589000000
H    -0.764000000     4.246000000     4.053000000
H    -0.810000000     5.756000000     4.146000000
O    -2.625000000    -0.664000000     3.746000000
H    -2.881000000    -0.916000000     4.633000000
H    -1.683000000    -0.827000000     3.712000000
O     4.325000000     0.862000000    -4.954000000
H     4.577000000     0.816000000    -4.031000000
H     4.754000000     1.654000000    -5.280000000
O    -1.533000000    -3.955000000     3.422000000
H    -0.768000000    -3.415000000     3.224000000
H    -1.399000000    -4.755000000     2.915000000
O     4.516000000     5.056000000    -1.603000000
H     4.072000000     4.209000000    -1.559000000
H     5.340000000     4.871000000    -2.054000000
O     0.117000000     6.916000000    -2.681000000
H     0.993000000     7.109000000    -2.348000000
H    -0.235000000     7.768000000    -2.938000000
O    -2.672000000    -0.681000000     6.542000000
H    -2.112000000     0.095000000     6.585000000
H    -3.541000000    -0.363000000     6.785000000
O     3.387000000    -3.301000000     3.526000000
H     2.438000000    -3.280000000     3.651000000
H     3.597000000    -4.231000000     3.441000000
O    -1.167000000    -3.679000000    -3.509000000
H    -0.358000000    -3.247000000    -3.783000000
H    -0.967000000    -4.033000000    -2.642000000
O    -4.036000000    -2.651000000     2.684000000
H    -3.334000000    -3.200000000     3.032000000
H    -3.726000000    -1.755000000     2.815000000
O     2.407000000    -0.773000000     6.727000000
H     1.810000000    -1.438000000     6.385000000
H     1.843000000    -0.170000000     7.211000000
O     1.662000000     4.721000000    -5.309000000
H     0.918000000     5.052000000    -4.806000000
H     2.431000000     5.027000000    -4.828000000
O     4.288000000    -0.773000000     2.622000000
H     4.152000000    -1.719000000     2.682000000
H     4.629000000    -0.636000000     1.738000000
O    -3.058000000    -0.294000000     0.198000000
H    -2.134000000    -0.534000000     0.124000000
H    -3.047000000     0.644000000     0.390000000
O    -3.118000000     2.620000000     0.746000000
H    -2.984000000     2.799000000     1.676000000
H    -2.993000000     3.467000000     0.318000000
O     0.840000000    -6.692000000     3.061000000
H     0.060000000    -6.981000000     3.536000000
H     1.435000000    -7.441000000     3.100000000
O    -1.270000000    -0.076000000    -7.731000000
H    -1.598000000     0.226000000    -8.578000000
H    -1.593000000     0.571000000    -7.104000000
O     1.844000000    -4.810000000     1.387000000
H     1.490000000    -5.484000000     1.966000000
H     1.670000000    -3.986000000     1.843000000
O     1.595000000     1.214000000     4.606000000
H     1.228000000     0.331000000     4.658000000
H     2.058000000     1.330000000     5.436000000
O     1.406000000    -0.365000000    -4.782000000
H     1.998000000     0.100000000    -4.191000000
H     0.683000000     0.245000000    -4.926000000
O     3.401000000     1.612000000     2.548000000
H     3.781000000     0.745000000     2.410000000
H     2.745000000     1.481000000     3.233000000
O     4.450000000    -1.783000000    -0.319000000
H     3.939000000    -2.573000000    -0.492000000
H     5.157000000    -2.076000000     0.256000000
O    -2.825000000    -3.457000000    -0.518000000
H    -3.015000000    -2.733000000    -1.115000000
H    -2.756000000    -3.045000000     0.344000000
O     2.885000000     2.795000000    -1.907000000
H     2.078000000     3.304000000    -1.987000000
H     2.628000000     1.901000000    -2.133000000
O     0.735000000     5.829000000     0.373000000
H    -0.134000000     6.039000000     0.713000000
H     1.020000000     5.075000000     0.890000000
O    -2.438000000     5.078000000    -0.732000000
H    -2.412000000     5.851000000    -1.295000000
H    -2.206000000     5.407000000     0.137000000
O     1.632000000     0.714000000    -7.498000000
H     1.805000000     0.480000000    -6.586000000
H     0.949000000     0.105000000    -7.776000000
O     0.469000000     4.250000000    -2.191000000
H     0.286000000     5.100000000    -2.592000000
H     0.310000000     4.386000000    -1.257000000
O    -2.589000000     3.111000000    -4.029000000
H    -1.952000000     3.280000000    -3.334000000
H    -3.280000000     3.757000000    -3.883000000
O     0.465000000    -5.292000000    -0.988000000
H     0.884000000    -5.065000000    -0.158000000
H     0.158000000    -6.190000000    -0.864000000
O     2.289000000    -5.846000000     5.182000000
H     2.358000000    -6.774000000     5.407000000
H     1.661000000    -5.821000000     4.460000000
O     2.546000000     4.233000000     2.162000000
H     2.439000000     4.103000000     3.104000000
H     2.781000000     3.369000000     1.826000000
O    -0.172000000     1.650000000    -5.233000000
H    -0.786000000     2.346000000    -4.999000000
H     0.258000000     1.968000000    -6.027000000
O     0.945000000    -3.000000000    -5.183000000
H     1.269000000    -2.100000000    -5.192000000
H     1.664000000    -3.518000000    -5.545000000
O     4.665000000    -2.562000000     5.937000000
H     4.082000000    -1.992000000     6.439000000
H     4.101000000    -2.951000000     5.268000000
O    -1.259000000     1.694000000     5.739000000
H    -0.354000000     1.898000000     5.976000000
H    -1.785000000     2.302000000     6.259000000
O    -2.094000000     3.349000000     3.182000000
H    -2.056000000     2.495000000     3.612000000
H    -2.821000000     3.800000000     3.610000000
O    -3.632000000    -6.175000000    -0.028000000
H    -3.328000000    -5.306000000    -0.291000000
H    -3.311000000    -6.759000000    -0.715000000
