158
-3061.75182
C     1.092000000    -0.583000000     0.798000000
H     1.958000000    -0.999000000     1.306000000
C     1.256000000     0.426000000    -0.119000000
H     2.249000000     0.691000000    -0.472000000
C     0.115000000     0.932000000    -0.775000000
H     0.216000000     1.579000000    -1.588000000
C    -1.178000000     0.597000000    -0.347000000
H    -2.062000000     1.034000000    -0.804000000
C    -1.265000000    -0.413000000     0.653000000
H    -2.274000000    -0.732000000     0.898000000
C    -0.128000000    -1.032000000     1.175000000
C    -0.211000000    -2.352000000     1.902000000
O    -1.228000000    -2.665000000     2.472000000
O     0.756000000    -3.141000000     1.964000000
O     1.617000000     2.392000000    -4.807000000
H     2.315000000     2.589000000    -4.183000000
H     0.827000000     2.330000000    -4.270000000
O     4.392000000     2.387000000     1.886000000
H     5.118000000     2.852000000     2.303000000
H     3.620000000     2.911000000     2.096000000
O    -2.516000000     4.998000000    -1.497000000
H    -1.954000000     4.462000000    -2.056000000
H    -3.358000000     5.017000000    -1.952000000
O     5.839000000     2.783000000    -1.518000000
H     6.156000000     3.244000000    -0.741000000
H     5.895000000     1.856000000    -1.286000000
O     4.053000000    -5.545000000     1.923000000
H     4.574000000    -5.311000000     2.691000000
H     3.239000000    -5.896000000     2.284000000
O    -0.086000000    -0.849000000     5.901000000
H     0.711000000    -0.706000000     5.390000000
H     0.181000000    -0.701000000     6.808000000
O    -4.281000000     1.368000000    -3.271000000
H    -4.560000000     1.052000000    -2.412000000
H    -4.893000000     0.962000000    -3.885000000
O    -1.249000000    -4.531000000     4.182000000
H    -1.370000000    -3.945000000     3.435000000
H    -0.326000000    -4.436000000     4.415000000
O     2.099000000    -2.401000000    -2.138000000
H     1.237000000    -2.150000000    -1.804000000
H     2.585000000    -2.679000000    -1.362000000
O     1.883000000    -2.590000000     4.245000000
H     2.393000000    -1.858000000     3.897000000
H     1.316000000    -2.853000000     3.521000000
O    -1.361000000    -4.959000000    -0.908000000
H    -0.946000000    -4.097000000    -0.891000000
H    -1.375000000    -5.200000000    -1.834000000
O     0.768000000     5.757000000    -3.013000000
H     0.212000000     6.528000000    -2.896000000
H     0.153000000     5.038000000    -3.160000000
O     2.239000000    -4.884000000     6.056000000
H     2.252000000    -5.604000000     5.425000000
H     2.077000000    -4.104000000     5.526000000
O     1.074000000    -0.533000000    -6.094000000
H     0.132000000    -0.653000000    -5.980000000
H     1.225000000     0.389000000    -5.883000000
O     1.209000000     2.141000000     3.306000000
H     1.459000000     2.800000000     3.955000000
H     1.258000000     2.601000000     2.468000000
O    -4.830000000     0.928000000     3.539000000
H    -4.174000000     0.231000000     3.579000000
H    -4.572000000     1.455000000     2.782000000
O     0.352000000     4.158000000    -6.666000000
H    -0.573000000     4.150000000    -6.420000000
H     0.789000000     3.667000000    -5.971000000
O    -1.606000000     1.007000000    -3.832000000
H    -1.402000000     0.398000000    -4.541000000
H    -2.530000000     0.849000000    -3.640000000
O    -2.728000000    -1.019000000     3.777000000
H    -2.840000000    -1.321000000     4.678000000
H    -1.974000000    -1.510000000     3.452000000
O     0.753000000    -5.847000000     1.400000000
H     0.899000000    -4.907000000     1.513000000
H     0.787000000    -6.202000000     2.288000000
O    -3.211000000    -2.311000000    -3.952000000
H    -4.042000000    -2.519000000    -4.378000000
H    -3.459000000    -1.996000000    -3.083000000
O    -1.676000000    -0.962000000    -5.962000000
H    -2.321000000    -1.560000000    -5.582000000
H    -2.155000000    -0.500000000    -6.649000000
O    -3.315000000     2.835000000     0.704000000
H    -2.556000000     2.888000000     1.285000000
H    -3.292000000     3.650000000     0.203000000
O    -1.721000000     1.305000000     5.237000000
H    -2.173000000     0.652000000     4.703000000
H    -1.144000000     0.793000000     5.803000000
O     1.203000000     3.777000000     0.884000000
H     0.590000000     4.511000000     0.862000000
H     0.680000000     3.020000000     0.619000000
O     3.610000000     0.330000000    -3.655000000
H     2.808000000    -0.192000000    -3.653000000
H     3.308000000     1.232000000    -3.546000000
O    -0.658000000    -1.998000000    -1.996000000
H    -1.256000000    -1.937000000    -2.742000000
H    -0.775000000    -1.172000000    -1.527000000
O    -3.181000000    -3.376000000     6.110000000
H    -2.582000000    -3.281000000     5.369000000
H    -2.611000000    -3.568000000     6.854000000
O    -3.889000000    -3.179000000     0.546000000
H    -3.632000000    -3.129000000     1.467000000
H    -3.244000000    -3.763000000     0.148000000
O    -4.661000000    -1.564000000    -1.801000000
H    -4.496000000    -2.213000000    -1.117000000
H    -4.480000000    -0.723000000    -1.381000000
O     0.566000000    -7.314000000    -1.142000000
H     0.622000000    -6.533000000    -0.592000000
H    -0.344000000    -7.601000000    -1.058000000
O    -3.557000000    -5.896000000     4.548000000
H    -2.722000000    -5.558000000     4.226000000
H    -3.875000000    -5.220000000     5.146000000
O    -1.368000000     3.181000000     2.528000000
H    -0.892000000     3.909000000     2.928000000
H    -0.989000000     2.399000000     2.928000000
O     5.756000000    -0.469000000    -2.270000000
H     6.386000000    -0.565000000    -2.983000000
H     4.931000000    -0.255000000    -2.706000000
O    -4.635000000     4.106000000    -3.361000000
H    -5.151000000     4.143000000    -2.556000000
H    -4.526000000     3.170000000    -3.533000000
O    -1.139000000     3.813000000    -3.742000000
H    -1.252000000     2.866000000    -3.672000000
H    -1.552000000     4.043000000    -4.575000000
O    -0.464000000     5.950000000     0.235000000
H    -0.087000000     6.759000000    -0.110000000
H    -1.260000000     5.818000000    -0.281000000
O     3.145000000    -3.196000000     0.330000000
H     2.549000000    -2.921000000     1.026000000
H     3.447000000    -4.062000000     0.601000000
O    -6.453000000    -2.350000000     2.390000000
H    -7.195000000    -2.052000000     1.863000000
H    -5.769000000    -2.547000000     1.750000000
O     6.253000000    -2.217000000    -0.336000000
H     6.467000000    -1.545000000    -0.984000000
H     5.411000000    -2.569000000    -0.625000000
O     3.248000000     5.361000000    -4.170000000
H     2.480000000     5.587000000    -3.645000000
H     3.636000000     6.204000000    -4.402000000
O    -2.027000000    -6.476000000     1.253000000
H    -1.165000000    -6.208000000     1.569000000
H    -2.107000000    -6.060000000     0.394000000
O     2.746000000     5.289000000    -0.767000000
H     1.985000000     5.652000000    -1.220000000
H     2.380000000     4.650000000    -0.156000000
O     2.968000000    -0.038000000     3.538000000
H     2.203000000     0.516000000     3.387000000
H     3.713000000     0.510000000     3.289000000
O    -4.779000000     0.997000000    -0.609000000
H    -5.723000000     1.020000000    -0.452000000
H    -4.424000000     1.676000000    -0.036000000
O     2.014000000    -6.782000000     3.999000000
H     2.717000000    -7.413000000     3.846000000
H     1.214000000    -7.307000000     3.983000000
O     3.634000000     3.000000000    -2.976000000
H     4.370000000     2.883000000    -2.374000000
H     3.552000000     3.949000000    -3.071000000
O     6.374000000     0.805000000     0.401000000
H     5.801000000     1.330000000     0.959000000
H     5.780000000     0.221000000    -0.071000000
