158
-3043.67044
C     0.535000000     0.419000000     1.328000000
H     0.890000000     0.783000000     2.289000000
C     0.238000000     1.281000000     0.256000000
H     0.419000000     2.347000000     0.361000000
C    -0.206000000     0.718000000    -0.970000000
H    -0.474000000     1.297000000    -1.848000000
C    -0.541000000    -0.623000000    -1.048000000
H    -1.019000000    -0.977000000    -1.957000000
C    -0.220000000    -1.419000000     0.038000000
H    -0.566000000    -2.448000000     0.001000000
C     0.393000000    -0.985000000     1.265000000
C     0.619000000    -1.870000000     2.408000000
O     0.738000000    -1.470000000     3.542000000
O     0.602000000    -3.075000000     2.170000000
O     1.812000000    -4.288000000     0.201000000
H     1.578000000    -3.674000000     0.898000000
H     1.166000000    -4.990000000     0.275000000
O    -4.017000000    -1.058000000    -0.826000000
H    -4.134000000    -0.859000000     0.103000000
H    -3.673000000    -1.951000000    -0.837000000
O    -3.933000000    -1.871000000    -3.616000000
H    -3.977000000    -1.579000000    -2.706000000
H    -3.104000000    -2.346000000    -3.675000000
O    -2.741000000    -2.382000000     4.889000000
H    -2.865000000    -1.524000000     4.484000000
H    -3.590000000    -2.816000000     4.798000000
O    -0.089000000     1.546000000    -4.278000000
H     0.404000000     0.860000000    -4.729000000
H     0.116000000     2.346000000    -4.761000000
O     2.915000000    -3.027000000     4.194000000
H     3.037000000    -3.741000000     3.568000000
H     2.136000000    -2.566000000     3.882000000
O     4.168000000    -0.894000000     0.992000000
H     3.260000000    -1.021000000     0.717000000
H     4.645000000    -1.618000000     0.587000000
O    -1.256000000     2.375000000     3.529000000
H    -1.791000000     1.912000000     2.884000000
H    -1.185000000     3.266000000     3.186000000
O    -3.554000000    -0.007000000     3.619000000
H    -4.230000000    -0.605000000     3.300000000
H    -3.331000000     0.529000000     2.858000000
O     5.344000000     2.001000000    -4.956000000
H     5.586000000     2.921000000    -4.850000000
H     4.475000000     1.936000000    -4.560000000
O    -5.258000000     1.309000000    -1.426000000
H    -4.949000000     0.580000000    -0.887000000
H    -6.006000000     0.953000000    -1.904000000
O     0.328000000     3.537000000     6.147000000
H    -0.143000000     2.757000000     6.443000000
H     0.426000000     3.413000000     5.202000000
O    -2.556000000    -6.160000000     3.411000000
H    -2.129000000    -5.574000000     4.035000000
H    -2.521000000    -5.689000000     2.578000000
O     1.162000000     5.995000000    -1.145000000
H     0.388000000     6.216000000    -1.665000000
H     1.264000000     6.732000000    -0.543000000
O     1.400000000    -0.353000000    -5.219000000
H     0.922000000    -1.167000000    -5.062000000
H     1.500000000    -0.313000000    -6.170000000
O    -3.535000000    -1.265000000    -6.898000000
H    -3.169000000    -0.543000000    -6.387000000
H    -2.780000000    -1.649000000    -7.345000000
O    -4.649000000     0.594000000    -4.743000000
H    -5.508000000     0.763000000    -5.130000000
H    -4.693000000    -0.316000000    -4.451000000
O    -0.871000000    -4.104000000     4.238000000
H    -0.098000000    -3.662000000     3.886000000
H    -1.476000000    -3.393000000     4.452000000
O     2.702000000    -3.155000000    -2.224000000
H     2.692000000    -3.768000000    -1.490000000
H     2.072000000    -2.477000000    -1.979000000
O    -2.329000000     0.786000000    -5.892000000
H    -1.606000000     1.013000000    -5.306000000
H    -3.113000000     0.875000000    -5.350000000
O    -0.050000000    -2.930000000    -5.353000000
H    -0.418000000    -3.477000000    -4.659000000
H    -0.179000000    -3.439000000    -6.153000000
O     1.369000000    -2.390000000     6.584000000
H     1.542000000    -3.318000000     6.742000000
H     1.830000000    -2.195000000     5.769000000
O     3.579000000     3.054000000     1.985000000
H     3.441000000     2.213000000     2.423000000
H     4.377000000     2.929000000     1.472000000
O    -2.817000000     1.246000000     1.153000000
H    -2.401000000     0.812000000     0.408000000
H    -3.272000000     1.996000000     0.770000000
O    -3.891000000     3.880000000     1.212000000
H    -3.243000000     4.348000000     0.687000000
H    -4.706000000     4.362000000     1.072000000
O     2.629000000     0.938000000     7.198000000
H     2.249000000     1.332000000     6.413000000
H     2.144000000     1.332000000     7.923000000
O    -0.210000000    -6.779000000    -0.837000000
H     0.521000000    -7.357000000    -1.057000000
H    -0.204000000    -6.738000000     0.119000000
O     1.075000000    -6.166000000     4.698000000
H     1.306000000    -6.010000000     5.614000000
H     0.403000000    -5.512000000     4.506000000
O     3.199000000     0.901000000     3.218000000
H     2.272000000     0.920000000     3.458000000
H     3.299000000     0.093000000     2.715000000
O     2.969000000     1.953000000    -3.811000000
H     2.212000000     1.896000000    -4.393000000
H     2.676000000     2.510000000    -3.090000000
O    -2.918000000    -5.983000000    -1.537000000
H    -3.232000000    -6.510000000    -2.272000000
H    -2.052000000    -6.339000000    -1.339000000
O     1.646000000     4.097000000     3.285000000
H     2.281000000     3.762000000     2.653000000
H     2.180000000     4.453000000     3.995000000
O     4.678000000    -3.374000000     6.217000000
H     4.406000000    -2.925000000     7.017000000
H     3.976000000    -3.195000000     5.591000000
O    -1.349000000    -4.873000000     1.202000000
H    -0.914000000    -4.038000000     1.372000000
H    -0.714000000    -5.535000000     1.477000000
O     3.494000000     4.018000000    -0.968000000
H     3.602000000     4.945000000    -0.754000000
H     2.667000000     3.772000000    -0.554000000
O    -1.683000000    -3.729000000    -2.903000000
H    -1.559000000    -4.548000000    -3.383000000
H    -2.109000000    -3.992000000    -2.087000000
O    -2.330000000     5.628000000     0.151000000
H    -2.006000000     5.811000000    -0.731000000
H    -1.539000000     5.545000000     0.684000000
O    -1.081000000     6.942000000    -2.354000000
H    -1.618000000     7.606000000    -2.787000000
H    -1.510000000     6.112000000    -2.565000000
O    -2.130000000     4.616000000    -2.909000000
H    -2.992000000     4.383000000    -3.254000000
H    -1.597000000     3.834000000    -3.048000000
O     0.440000000    -6.815000000     1.900000000
H     0.480000000    -6.735000000     2.853000000
H     1.354000000    -6.903000000     1.629000000
O    -0.479000000     5.628000000     2.258000000
H    -0.641000000     6.373000000     2.837000000
H     0.225000000     5.141000000     2.686000000
O     1.104000000     4.128000000    -5.171000000
H     1.204000000     5.019000000    -4.837000000
H     0.525000000     4.220000000    -5.928000000
O    -4.470000000     3.515000000    -3.999000000
H    -5.053000000     3.678000000    -3.258000000
H    -4.294000000     2.575000000    -3.963000000
O     4.261000000    -0.021000000    -2.192000000
H     3.655000000     0.507000000    -2.712000000
H     4.426000000     0.504000000    -1.409000000
O    -1.073000000    -1.169000000     6.845000000
H    -0.163000000    -1.410000000     6.668000000
H    -1.586000000    -1.731000000     6.265000000
O     0.643000000     0.964000000     4.808000000
H     0.223000000     0.133000000     4.585000000
H     0.099000000     1.629000000     4.387000000
O    -3.446000000    -3.706000000    -0.534000000
H    -3.299000000    -4.535000000    -0.989000000
H    -3.185000000    -3.879000000     0.370000000
O     5.808000000     1.915000000     4.088000000
H     5.912000000     2.510000000     4.831000000
H     4.863000000     1.774000000     4.025000000
