158
-3041.64036
C     0.182000000     0.523000000     1.436000000
H     0.287000000     1.020000000     2.397000000
C    -0.027000000     1.280000000     0.276000000
H    -0.067000000     2.343000000     0.497000000
C    -0.161000000     0.712000000    -0.971000000
H    -0.397000000     1.365000000    -1.867000000
C    -0.165000000    -0.654000000    -1.152000000
H    -0.276000000    -1.080000000    -2.146000000
C     0.012000000    -1.475000000    -0.025000000
H    -0.036000000    -2.559000000    -0.100000000
C     0.237000000    -0.918000000     1.283000000
C     0.298000000    -1.927000000     2.451000000
O     0.443000000    -1.418000000     3.527000000
O     0.146000000    -3.126000000     2.294000000
O    -2.216000000     2.595000000     3.898000000
H    -2.958000000     2.405000000     3.323000000
H    -1.784000000     1.749000000     4.018000000
O    -5.272000000     4.288000000     0.995000000
H    -4.329000000     4.128000000     0.977000000
H    -5.606000000     3.841000000     0.218000000
O    -0.783000000    -3.727000000     5.799000000
H    -1.321000000    -4.145000000     5.126000000
H     0.052000000    -3.554000000     5.365000000
O     2.762000000     6.406000000    -2.144000000
H     2.996000000     7.329000000    -2.048000000
H     3.488000000     5.931000000    -1.738000000
O    -3.392000000     0.803000000    -4.919000000
H    -3.107000000    -0.105000000    -4.814000000
H    -3.966000000     0.963000000    -4.170000000
O     4.536000000    -3.255000000     0.519000000
H     5.273000000    -3.724000000     0.911000000
H     3.774000000    -3.546000000     1.018000000
O     2.861000000     1.501000000    -0.428000000
H     2.912000000     0.609000000    -0.770000000
H     2.020000000     1.831000000    -0.742000000
O    -1.953000000    -0.247000000     4.891000000
H    -1.662000000    -0.640000000     5.713000000
H    -1.273000000    -0.483000000     4.259000000
O     5.107000000     2.125000000    -3.892000000
H     4.220000000     2.193000000    -3.540000000
H     5.400000000     3.032000000    -3.981000000
O    -5.731000000     2.406000000    -3.772000000
H    -5.834000000     3.266000000    -4.179000000
H    -5.861000000     2.567000000    -2.837000000
O    -2.119000000    -4.117000000     3.229000000
H    -1.240000000    -3.812000000     3.006000000
H    -2.115000000    -5.047000000     3.003000000
O     4.546000000     5.013000000    -0.281000000
H     3.853000000     4.784000000     0.339000000
H     5.328000000     4.583000000     0.063000000
O     5.436000000     1.879000000     0.476000000
H     5.899000000     1.710000000    -0.344000000
H     4.523000000     2.000000000     0.215000000
O     0.158000000    -3.605000000    -3.911000000
H     0.771000000    -3.897000000    -3.237000000
H     0.640000000    -2.939000000    -4.402000000
O     2.975000000    -1.914000000     4.208000000
H     3.118000000    -1.320000000     3.472000000
H     2.062000000    -2.190000000     4.120000000
O    -2.791000000    -2.957000000    -1.236000000
H    -2.446000000    -2.068000000    -1.317000000
H    -3.591000000    -2.952000000    -1.762000000
O    -3.957000000    -1.032000000     3.366000000
H    -3.622000000    -1.747000000     2.825000000
H    -3.261000000    -0.865000000     4.001000000
O     1.039000000    -0.385000000     7.749000000
H     0.095000000    -0.355000000     7.905000000
H     1.421000000    -0.512000000     8.617000000
O     1.905000000     4.658000000    -5.459000000
H     1.465000000     4.750000000    -4.614000000
H     2.263000000     3.770000000    -5.447000000
O     3.451000000    -0.431000000     1.961000000
H     4.219000000    -0.125000000     1.479000000
H     2.706000000    -0.097000000     1.461000000
O    -3.337000000     0.831000000    -0.769000000
H    -2.505000000     0.377000000    -0.636000000
H    -3.279000000     1.606000000    -0.210000000
O    -1.689000000    -5.948000000     1.029000000
H    -0.904000000    -6.170000000     1.530000000
H    -1.355000000    -5.631000000     0.189000000
O    -2.641000000     3.429000000     0.188000000
H    -2.079000000     3.803000000     0.867000000
H    -2.346000000     3.845000000    -0.622000000
O     0.531000000    -6.629000000     2.562000000
H    -0.154000000    -6.791000000     3.210000000
H     1.349000000    -6.750000000     3.044000000
O     1.660000000    -4.740000000     0.851000000
H     1.501000000    -5.544000000     1.345000000
H     1.176000000    -4.066000000     1.329000000
O     1.200000000     0.758000000     4.877000000
H     1.019000000    -0.122000000     4.547000000
H     0.824000000     0.766000000     5.757000000
O    -3.907000000    -4.343000000     5.525000000
H    -3.598000000    -4.575000000     4.649000000
H    -3.743000000    -5.125000000     6.052000000
O     1.081000000     1.628000000    -3.845000000
H     0.960000000     2.343000000    -3.219000000
H     0.484000000     1.836000000    -4.564000000
O     3.996000000     1.124000000     4.231000000
H     4.065000000     0.469000000     3.536000000
H     3.145000000     0.955000000     4.636000000
O     3.294000000    -1.119000000    -1.071000000
H     3.040000000    -1.204000000    -1.989000000
H     3.905000000    -1.841000000    -0.923000000
O    -3.654000000    -2.898000000     1.210000000
H    -3.279000000    -3.140000000     0.363000000
H    -3.187000000    -3.444000000     1.843000000
O     2.720000000     4.424000000     1.791000000
H     2.426000000     5.276000000     2.112000000
H     2.082000000     3.802000000     2.140000000
O     0.727000000     7.407000000    -0.488000000
H     1.100000000     7.165000000    -1.335000000
H     1.471000000     7.392000000     0.114000000
O    -1.148000000     5.291000000    -1.460000000
H    -1.685000000     5.847000000    -2.024000000
H    -0.732000000     5.899000000    -0.850000000
O     0.101000000     1.414000000    -7.926000000
H    -0.300000000     1.677000000    -7.098000000
H     0.789000000     0.797000000    -7.674000000
O     1.055000000     4.202000000    -2.694000000
H     0.254000000     4.689000000    -2.501000000
H     1.763000000     4.813000000    -2.486000000
O    -1.864000000     4.653000000    -5.877000000
H    -1.922000000     5.492000000    -6.333000000
H    -2.552000000     4.693000000    -5.213000000
O    -2.225000000     6.719000000     1.116000000
H    -1.945000000     5.947000000     1.607000000
H    -2.708000000     7.246000000     1.752000000
O     2.033000000    -4.375000000    -1.862000000
H     2.154000000    -4.218000000    -0.926000000
H     2.795000000    -4.894000000    -2.119000000
O    -0.942000000     2.001000000    -5.491000000
H    -1.191000000     2.916000000    -5.622000000
H    -1.770000000     1.547000000    -5.334000000
O    -3.903000000     5.152000000    -3.983000000
H    -3.523000000     5.688000000    -3.288000000
H    -4.664000000     5.651000000    -4.282000000
O     1.857000000    -1.092000000    -3.960000000
H     1.620000000    -0.177000000    -3.812000000
H     1.753000000    -1.217000000    -4.903000000
O    -1.828000000    -4.480000000    -6.011000000
H    -1.427000000    -5.343000000    -5.911000000
H    -1.689000000    -4.053000000    -5.166000000
O     3.270000000    -1.139000000     6.780000000
H     2.341000000    -1.026000000     6.981000000
H     3.289000000    -1.343000000     5.845000000
O     3.905000000    -2.831000000    -3.941000000
H     3.149000000    -2.262000000    -4.085000000
H     3.666000000    -3.359000000    -3.180000000
O     1.132000000     3.169000000     3.542000000
H     1.304000000     2.293000000     3.885000000
H     1.202000000     3.744000000     4.304000000
O    -1.058000000     4.455000000     2.232000000
H    -0.157000000     4.286000000     2.508000000
H    -1.597000000     4.032000000     2.899000000
O    -1.027000000    -5.176000000    -1.549000000
H    -1.314000000    -4.263000000    -1.545000000
H    -0.082000000    -5.130000000    -1.693000000
