158
-3035.19231
C     1.168000000     0.454000000     0.889000000
H     1.881000000     0.952000000     1.541000000
C     0.617000000     1.129000000    -0.211000000
H     0.979000000     2.098000000    -0.545000000
C    -0.417000000     0.609000000    -0.953000000
H    -0.785000000     1.096000000    -1.922000000
C    -0.902000000    -0.666000000    -0.656000000
H    -1.750000000    -0.945000000    -1.275000000
C    -0.301000000    -1.392000000     0.401000000
H    -0.820000000    -2.310000000     0.665000000
C     0.582000000    -0.760000000     1.304000000
C     1.337000000    -1.613000000     2.296000000
O     1.868000000    -0.949000000     3.171000000
O     1.304000000    -2.814000000     2.267000000
O     1.650000000    -4.065000000    -0.094000000
H     1.549000000    -3.691000000     0.782000000
H     2.076000000    -4.909000000     0.054000000
O    -3.402000000    -2.696000000    -0.662000000
H    -2.983000000    -2.114000000    -0.028000000
H    -4.289000000    -2.350000000    -0.755000000
O    -4.705000000    -1.046000000    -3.486000000
H    -4.775000000    -1.458000000    -4.347000000
H    -3.842000000    -0.633000000    -3.487000000
O    -3.962000000     2.559000000    -2.131000000
H    -4.166000000     3.493000000    -2.087000000
H    -4.714000000     2.170000000    -2.578000000
O    -2.341000000    -2.624000000     5.100000000
H    -2.570000000    -1.752000000     4.777000000
H    -3.159000000    -2.970000000     5.456000000
O    -2.021000000    -0.601000000    -4.658000000
H    -1.338000000    -0.772000000    -5.306000000
H    -2.000000000    -1.365000000    -4.081000000
O     2.662000000    -4.724000000     3.318000000
H     2.291000000    -5.506000000     2.908000000
H     2.297000000    -3.995000000     2.816000000
O     2.000000000    -2.012000000    -1.776000000
H     1.944000000    -2.820000000    -1.266000000
H     1.238000000    -1.502000000    -1.500000000
O    -3.883000000    -5.353000000    -0.363000000
H    -3.778000000    -4.402000000    -0.383000000
H    -2.996000000    -5.694000000    -0.472000000
O    -0.702000000     2.455000000     2.024000000
H    -0.214000000     1.955000000     1.369000000
H    -1.336000000     2.960000000     1.515000000
O    -3.033000000    -1.018000000     1.859000000
H    -3.862000000    -1.044000000     2.336000000
H    -3.029000000    -0.161000000     1.433000000
O     0.362000000     4.297000000     4.239000000
H     0.380000000     3.553000000     4.840000000
H     0.238000000     3.904000000     3.375000000
O    -3.003000000    -4.173000000     2.530000000
H    -3.156000000    -3.564000000     1.807000000
H    -2.299000000    -4.742000000     2.218000000
O    -6.119000000     1.311000000    -3.357000000
H    -6.549000000     1.510000000    -4.189000000
H    -5.774000000     0.425000000    -3.471000000
O     3.105000000    -1.606000000     7.801000000
H     3.231000000    -0.658000000     7.757000000
H     2.995000000    -1.875000000     6.889000000
O     0.022000000    -4.175000000     5.359000000
H     0.583000000    -3.878000000     4.642000000
H    -0.816000000    -3.738000000     5.205000000
O    -2.198000000    -2.705000000    -3.104000000
H    -1.387000000    -3.143000000    -2.845000000
H    -2.794000000    -2.851000000    -2.370000000
O     2.770000000    -2.738000000     5.213000000
H     2.904000000    -3.476000000     4.618000000
H     2.327000000    -2.078000000     4.680000000
O     4.194000000     2.116000000    -0.206000000
H     4.149000000     1.166000000    -0.320000000
H     4.287000000     2.459000000    -1.095000000
O    -3.064000000     1.168000000     0.087000000
H    -2.122000000     1.322000000     0.014000000
H    -3.421000000     1.463000000    -0.751000000
O    -1.986000000     3.880000000     0.101000000
H    -1.705000000     4.708000000     0.491000000
H    -2.912000000     3.808000000     0.333000000
O     0.026000000     0.520000000     6.876000000
H     0.472000000     0.853000000     6.097000000
H     0.387000000     1.035000000     7.598000000
O     4.126000000     4.581000000    -1.752000000
H     4.852000000     4.977000000    -2.234000000
H     4.155000000     4.998000000    -0.891000000
O     0.296000000    -6.910000000     5.357000000
H     0.107000000    -7.085000000     6.278000000
H     0.064000000    -5.989000000     5.235000000
O     4.349000000    -1.032000000     4.194000000
H     4.095000000    -1.702000000     4.828000000
H     3.548000000    -0.852000000     3.702000000
O     0.886000000     1.895000000    -3.807000000
H     0.465000000     1.903000000    -4.666000000
H     0.770000000     2.786000000    -3.475000000
O     3.134000000     4.208000000     1.193000000
H     3.509000000     3.362000000     0.947000000
H     3.425000000     4.346000000     2.094000000
O     5.031000000    -5.164000000     4.722000000
H     4.701000000    -5.743000000     5.410000000
H     4.263000000    -4.968000000     4.185000000
O     5.467000000    -3.863000000     0.629000000
H     6.374000000    -3.795000000     0.333000000
H     5.421000000    -4.712000000     1.069000000
O    -0.794000000    -5.888000000     1.471000000
H     0.065000000    -5.618000000     1.795000000
H    -0.687000000    -5.935000000     0.521000000
O     1.487000000     5.032000000    -2.483000000
H     2.428000000     4.865000000    -2.431000000
H     1.210000000     5.125000000    -1.571000000
O    -6.106000000    -2.073000000    -0.290000000
H    -6.037000000    -1.164000000     0.001000000
H    -6.833000000    -2.432000000     0.219000000
O    -1.516000000     5.331000000    -2.122000000
H    -1.582000000     4.766000000    -1.352000000
H    -0.608000000     5.239000000    -2.409000000
O    -1.520000000     3.839000000    -6.880000000
H    -1.430000000     3.972000000    -5.936000000
H    -2.422000000     4.093000000    -7.073000000
O    -3.368000000     5.773000000    -4.237000000
H    -2.917000000     6.616000000    -4.297000000
H    -2.700000000     5.166000000    -3.919000000
O     7.107000000    -1.660000000     4.748000000
H     7.111000000    -1.468000000     5.685000000
H     6.247000000    -1.367000000     4.446000000
O    -1.843000000     2.901000000    -4.306000000
H    -2.293000000     2.677000000    -3.491000000
H    -2.156000000     2.254000000    -4.938000000
O     2.351000000    -6.437000000     1.073000000
H     2.466000000    -7.037000000     1.810000000
H     2.428000000    -6.992000000     0.298000000
O     0.942000000     5.083000000     0.035000000
H     0.720000000     5.829000000     0.592000000
H     1.710000000     4.692000000     0.452000000
O     0.384000000     2.061000000    -6.588000000
H     0.048000000     1.295000000    -7.053000000
H    -0.328000000     2.699000000    -6.632000000
O    -4.599000000     2.289000000    -6.032000000
H    -5.471000000     2.045000000    -6.342000000
H    -4.043000000     1.548000000    -6.272000000
O     3.035000000    -0.003000000    -3.413000000
H     2.316000000     0.629000000    -3.421000000
H     2.664000000    -0.784000000    -3.002000000
O    -0.764000000    -1.898000000     7.463000000
H    -0.417000000    -1.094000000     7.076000000
H    -1.029000000    -2.430000000     6.713000000
O     4.346000000    -3.877000000    -1.847000000
H     4.519000000    -3.770000000    -0.911000000
H     3.791000000    -3.131000000    -2.074000000
O     0.940000000     1.202000000     4.320000000
H     1.392000000     0.554000000     3.780000000
H     0.069000000     1.274000000     3.931000000
O     4.203000000    -0.864000000    -0.124000000
H     3.661000000    -1.343000000    -0.751000000
H     4.398000000    -1.503000000     0.561000000
O     6.460000000     0.549000000     2.666000000
H     5.596000000     0.168000000     2.822000000
H     6.646000000     1.055000000     3.457000000
O    -0.096000000    -4.298000000    -2.040000000
H    -0.410000000    -5.173000000    -1.813000000
H     0.488000000    -4.059000000    -1.321000000
