158
-3050.47651
C     0.172000000    -0.451000000     1.395000000
H     0.553000000    -0.740000000     2.371000000
C     0.535000000     0.849000000     0.897000000
H     1.081000000     1.474000000     1.598000000
C     0.257000000     1.163000000    -0.411000000
H     0.493000000     2.122000000    -0.825000000
C    -0.496000000     0.290000000    -1.180000000
H    -0.592000000     0.488000000    -2.244000000
C    -0.806000000    -1.013000000    -0.762000000
H    -1.281000000    -1.711000000    -1.447000000
C    -0.481000000    -1.392000000     0.538000000
C    -0.717000000    -2.872000000     1.044000000
O    -0.430000000    -3.267000000     2.150000000
O    -1.208000000    -3.598000000     0.169000000
O     2.489000000    -5.995000000    -0.494000000
H     3.417000000    -5.864000000    -0.299000000
H     2.229000000    -5.200000000    -0.959000000
O    -5.418000000     2.652000000    -1.759000000
H    -4.537000000     2.781000000    -2.111000000
H    -5.967000000     2.515000000    -2.530000000
O    -0.522000000    -3.047000000     6.162000000
H    -0.824000000    -2.468000000     5.463000000
H    -0.533000000    -3.920000000     5.772000000
O    -0.926000000    -5.186000000     4.091000000
H    -0.992000000    -4.745000000     3.244000000
H    -1.786000000    -5.586000000     4.220000000
O     2.095000000    -2.615000000     3.180000000
H     2.551000000    -2.719000000     2.345000000
H     1.183000000    -2.829000000     2.983000000
O     5.090000000     1.438000000    -2.153000000
H     5.646000000     0.832000000    -2.643000000
H     4.205000000     1.087000000    -2.254000000
O     4.376000000    -1.889000000    -1.298000000
H     3.737000000    -1.452000000    -1.861000000
H     5.053000000    -2.199000000    -1.899000000
O     2.650000000     0.088000000    -2.566000000
H     2.142000000    -0.057000000    -3.365000000
H     1.993000000     0.269000000    -1.894000000
O     1.284000000     1.694000000    -5.948000000
H     1.149000000     1.191000000    -6.752000000
H     0.918000000     1.143000000    -5.256000000
O    -2.285000000     1.871000000     0.974000000
H    -1.503000000     1.532000000     0.537000000
H    -1.953000000     2.287000000     1.769000000
O    -2.650000000    -5.760000000     1.270000000
H    -2.119000000    -5.108000000     0.813000000
H    -2.428000000    -6.589000000     0.847000000
O     0.854000000     5.475000000    -2.075000000
H     0.992000000     6.416000000    -1.967000000
H     1.231000000     5.274000000    -2.932000000
O     4.655000000     4.285000000    -2.152000000
H     4.291000000     4.485000000    -1.290000000
H     4.887000000     3.358000000    -2.106000000
O    -1.361000000     6.215000000    -3.881000000
H    -0.471000000     6.186000000    -3.530000000
H    -1.439000000     7.090000000    -4.263000000
O    -5.039000000     1.836000000     1.018000000
H    -5.351000000     1.965000000     0.122000000
H    -4.126000000     2.121000000     0.997000000
O     0.878000000    -6.558000000     1.660000000
H    -0.011000000    -6.428000000     1.331000000
H     1.443000000    -6.298000000     0.932000000
O     3.613000000    -0.447000000     3.893000000
H     2.967000000    -1.104000000     3.632000000
H     3.678000000     0.137000000     3.138000000
O    -0.908000000     2.944000000     3.921000000
H    -1.242000000     3.293000000     4.748000000
H    -1.189000000     2.029000000     3.916000000
O    -3.535000000    -0.572000000    -0.128000000
H    -2.589000000    -0.693000000    -0.211000000
H    -3.632000000     0.292000000     0.273000000
O    -3.135000000    -0.081000000    -3.591000000
H    -3.911000000    -0.064000000    -4.151000000
H    -3.128000000     0.777000000    -3.166000000
O    -4.613000000    -5.562000000     2.943000000
H    -3.965000000    -5.625000000     2.241000000
H    -4.188000000    -5.969000000     3.698000000
O     4.211000000     1.579000000     0.641000000
H     3.700000000     2.380000000     0.757000000
H     4.409000000     1.555000000    -0.296000000
O    -2.670000000     2.561000000    -2.602000000
H    -2.236000000     3.076000000    -3.282000000
H    -2.292000000     2.880000000    -1.783000000
O    -1.982000000    -2.141000000     4.030000000
H    -2.833000000    -2.566000000     3.922000000
H    -1.394000000    -2.632000000     3.456000000
O     2.850000000     4.151000000     0.011000000
H     2.779000000     4.496000000     0.901000000
H     2.176000000     4.620000000    -0.481000000
O    -3.766000000     5.937000000    -1.517000000
H    -2.829000000     5.749000000    -1.569000000
H    -3.950000000     5.976000000    -0.579000000
O     1.377000000    -3.727000000    -1.542000000
H     0.613000000    -3.788000000    -0.969000000
H     1.757000000    -2.871000000    -1.344000000
O    -4.272000000    -3.716000000    -3.844000000
H    -4.229000000    -3.102000000    -4.577000000
H    -3.689000000    -4.432000000    -4.095000000
O     4.437000000    -2.702000000     1.513000000
H     5.055000000    -3.413000000     1.686000000
H     4.572000000    -2.487000000     0.590000000
O    -4.807000000    -2.913000000     3.969000000
H    -5.008000000    -3.817000000     3.725000000
H    -5.328000000    -2.381000000     3.367000000
O    -4.686000000    -4.956000000    -0.782000000
H    -4.511000000    -4.458000000    -1.580000000
H    -3.967000000    -4.727000000    -0.193000000
O     1.739000000    -4.947000000     4.949000000
H     2.014000000    -4.108000000     4.577000000
H     0.830000000    -5.047000000     4.666000000
O    -1.306000000    -6.837000000    -2.234000000
H    -1.331000000    -7.630000000    -1.698000000
H    -2.139000000    -6.840000000    -2.706000000
O     3.656000000    -6.929000000     3.037000000
H     3.959000000    -7.530000000     2.356000000
H     2.736000000    -6.770000000     2.823000000
O    -1.567000000    -4.014000000    -2.486000000
H    -1.297000000    -4.911000000    -2.288000000
H    -1.691000000    -3.607000000    -1.629000000
O    -0.038000000     4.752000000     1.846000000
H     0.839000000     4.852000000     2.217000000
H    -0.414000000     4.010000000     2.320000000
O     3.941000000    -2.669000000     5.839000000
H     3.203000000    -2.636000000     6.448000000
H     3.894000000    -1.842000000     5.360000000
O    -2.454000000     4.355000000    -5.739000000
H    -2.088000000     4.913000000    -6.425000000
H    -2.311000000     4.846000000    -4.929000000
O     2.790000000     3.939000000     3.039000000
H     3.719000000     3.831000000     3.240000000
H     2.350000000     3.284000000     3.581000000
O     1.029000000    -4.261000000    -4.255000000
H     0.727000000    -3.710000000    -3.533000000
H     1.967000000    -4.370000000    -4.097000000
O    -1.259000000     4.322000000    -0.854000000
H    -0.655000000     4.797000000    -1.425000000
H    -0.865000000     4.386000000     0.016000000
O     2.917000000     5.509000000    -4.029000000
H     2.762000000     5.232000000    -4.932000000
H     3.511000000     4.848000000    -3.674000000
O     0.887000000    -0.450000000    -4.492000000
H     0.086000000    -0.794000000    -4.096000000
H     1.150000000    -1.121000000    -5.122000000
O     6.489000000     1.295000000     2.197000000
H     7.022000000     0.755000000     1.614000000
H     5.652000000     1.384000000     1.742000000
O     1.826000000     2.216000000     4.913000000
H     0.941000000     2.204000000     4.549000000
H     1.728000000     1.849000000     5.792000000
O    -1.544000000    -1.920000000    -4.307000000
H    -2.083000000    -1.192000000    -3.998000000
H    -1.710000000    -2.624000000    -3.679000000
O    -5.618000000    -1.402000000     1.727000000
H    -5.468000000    -1.135000000     0.821000000
H    -4.748000000    -1.627000000     2.057000000
O    -2.417000000     0.703000000     4.286000000
H    -2.283000000    -0.232000000     4.436000000
H    -3.222000000     0.910000000     4.761000000
