158
-3031.24193
C    -0.461000000    -0.531000000     1.311000000
H    -0.846000000    -0.922000000     2.249000000
C    -0.184000000     0.832000000     1.062000000
H    -0.237000000     1.568000000     1.859000000
C     0.181000000     1.204000000    -0.204000000
H     0.331000000     2.223000000    -0.399000000
C     0.353000000     0.261000000    -1.246000000
H     0.688000000     0.484000000    -2.256000000
C     0.104000000    -1.080000000    -0.975000000
H     0.285000000    -1.809000000    -1.761000000
C    -0.305000000    -1.464000000     0.319000000
C    -0.535000000    -2.975000000     0.577000000
O    -0.972000000    -3.299000000     1.659000000
O    -0.601000000    -3.677000000    -0.364000000
O     0.581000000    -2.348000000     3.811000000
H     0.372000000    -2.491000000     2.888000000
H    -0.270000000    -2.347000000     4.251000000
O    -2.765000000    -0.019000000    -5.567000000
H    -2.298000000     0.553000000    -4.958000000
H    -2.097000000    -0.296000000    -6.195000000
O     2.898000000    -3.823000000    -3.567000000
H     3.660000000    -3.332000000    -3.261000000
H     2.393000000    -3.189000000    -4.076000000
O     3.554000000    -0.030000000    -1.669000000
H     3.633000000    -0.132000000    -2.618000000
H     2.878000000     0.638000000    -1.555000000
O     3.200000000    -3.857000000     3.424000000
H     2.429000000    -3.321000000     3.234000000
H     3.639000000    -3.953000000     2.579000000
O    -3.442000000    -3.421000000     2.354000000
H    -2.523000000    -3.503000000     2.098000000
H    -3.510000000    -3.925000000     3.165000000
O    -2.065000000    -2.645000000     5.106000000
H    -2.376000000    -3.547000000     5.033000000
H    -2.828000000    -2.152000000     5.410000000
O    -0.808000000    -6.388000000     0.248000000
H    -0.600000000    -5.456000000     0.188000000
H     0.010000000    -6.799000000     0.529000000
O     3.213000000     3.703000000    -0.084000000
H     4.118000000     3.937000000     0.121000000
H     3.155000000     2.770000000     0.120000000
O    -4.594000000    -5.417000000    -1.560000000
H    -5.039000000    -5.135000000    -0.762000000
H    -3.955000000    -4.726000000    -1.735000000
O     0.116000000     7.056000000    -3.608000000
H     0.787000000     6.387000000    -3.744000000
H     0.110000000     7.200000000    -2.661000000
O    -5.354000000    -1.165000000     2.319000000
H    -4.582000000    -1.729000000     2.270000000
H    -5.489000000    -0.866000000     1.420000000
O     4.160000000    -4.209000000     0.881000000
H     3.925000000    -3.709000000     0.099000000
H     4.123000000    -5.123000000     0.601000000
O     0.555000000     2.132000000     4.468000000
H     0.161000000     1.260000000     4.432000000
H     0.378000000     2.439000000     5.357000000
O    -3.592000000     3.556000000     1.366000000
H    -3.499000000     4.380000000     0.888000000
H    -3.197000000     2.900000000     0.792000000
O    -3.426000000    -5.018000000     4.652000000
H    -3.368000000    -5.226000000     5.584000000
H    -3.828000000    -5.792000000     4.258000000
O    -5.596000000    -3.880000000     0.580000000
H    -5.886000000    -3.032000000     0.244000000
H    -4.762000000    -3.695000000     1.010000000
O    -3.772000000    -1.210000000    -2.415000000
H    -3.438000000    -0.534000000    -1.826000000
H    -4.249000000    -0.727000000    -3.089000000
O    -3.441000000    -6.994000000     0.799000000
H    -2.584000000    -6.791000000     0.424000000
H    -4.051000000    -6.904000000     0.067000000
O     1.577000000    -5.568000000     5.143000000
H     2.087000000    -4.985000000     4.580000000
H     0.690000000    -5.530000000     4.787000000
O     3.657000000    -2.587000000    -1.024000000
H     3.519000000    -1.667000000    -1.251000000
H     4.606000000    -2.705000000    -1.071000000
O    -3.059000000     1.148000000    -0.846000000
H    -2.735000000     1.842000000    -1.420000000
H    -2.272000000     0.786000000    -0.440000000
O    -2.940000000     4.510000000    -1.470000000
H    -2.021000000     4.708000000    -1.288000000
H    -3.188000000     5.133000000    -2.153000000
O    -0.871000000    -8.635000000    -1.303000000
H    -0.738000000    -7.741000000    -0.988000000
H    -1.629000000    -8.574000000    -1.885000000
O    -1.765000000     4.441000000    -5.130000000
H    -2.526000000     4.119000000    -5.614000000
H    -1.291000000     4.981000000    -5.762000000
O     0.548000000    -5.338000000    -2.302000000
H     1.312000000    -4.895000000    -2.671000000
H     0.269000000    -4.773000000    -1.582000000
O    -0.563000000    -5.239000000     3.655000000
H    -0.685000000    -4.618000000     2.937000000
H    -1.445000000    -5.556000000     3.850000000
O     2.598000000     2.551000000    -4.029000000
H     2.133000000     2.611000000    -4.864000000
H     3.039000000     1.703000000    -4.060000000
O     0.112000000     7.091000000     2.640000000
H     0.672000000     6.463000000     2.184000000
H    -0.587000000     6.558000000     3.018000000
O     4.383000000     0.245000000     1.169000000
H     3.801000000    -0.145000000     1.822000000
H     4.046000000    -0.070000000     0.330000000
O     0.989000000    -1.477000000    -5.185000000
H     0.701000000    -0.569000000    -5.282000000
H     0.295000000    -1.993000000    -5.595000000
O    -2.409000000    -3.771000000    -2.288000000
H    -2.785000000    -2.895000000    -2.376000000
H    -1.652000000    -3.650000000    -1.715000000
O     2.663000000     3.778000000     3.745000000
H     3.120000000     3.723000000     4.584000000
H     1.985000000     3.103000000     3.797000000
O     1.580000000     4.547000000    -2.329000000
H     2.317000000     4.357000000    -1.748000000
H     1.710000000     3.965000000    -3.078000000
O     1.419000000    -1.929000000     6.441000000
H     1.173000000    -2.220000000     5.563000000
H     1.743000000    -1.037000000     6.316000000
O    -2.205000000     2.313000000    -3.504000000
H    -1.946000000     3.176000000    -3.829000000
H    -3.155000000     2.372000000    -3.401000000
O    -0.176000000     1.119000000    -5.035000000
H    -0.333000000     1.945000000    -5.492000000
H    -0.574000000     1.242000000    -4.173000000
O    -1.925000000    -4.424000000    -4.806000000
H    -2.478000000    -4.204000000    -4.056000000
H    -1.319000000    -5.085000000    -4.470000000
O     1.351000000    -7.495000000     2.179000000
H     1.058000000    -8.387000000     1.992000000
H     0.801000000    -7.211000000     2.910000000
O     1.383000000     5.123000000     1.473000000
H     2.030000000     4.640000000     0.959000000
H     1.483000000     4.785000000     2.363000000
O     3.361000000    -0.277000000    -4.358000000
H     3.778000000    -0.124000000    -5.206000000
H     2.568000000    -0.772000000    -4.567000000
O    -0.712000000    -0.154000000     5.753000000
H    -0.251000000    -0.001000000     6.578000000
H    -0.989000000    -1.069000000     5.799000000
O     5.122000000     4.225000000     2.393000000
H     4.291000000     4.335000000     2.857000000
H     5.446000000     3.373000000     2.682000000
O     2.753000000    -0.739000000     3.430000000
H     1.957000000    -1.269000000     3.474000000
H     2.732000000    -0.207000000     4.225000000
O    -0.460000000    -6.583000000    -4.210000000
H    -0.012000000    -7.423000000    -4.102000000
H    -0.165000000    -6.057000000    -3.466000000
O    -0.405000000     5.047000000    -0.716000000
H     0.269000000     4.651000000    -1.269000000
H     0.068000000     5.345000000     0.061000000
O    -1.893000000     5.194000000     3.148000000
H    -2.615000000     5.778000000     2.917000000
H    -2.068000000     4.391000000     2.656000000
O    -3.015000000     1.655000000     5.729000000
H    -3.881000000     1.397000000     5.414000000
H    -2.432000000     0.962000000     5.421000000
