158
-3065.93042
C     0.241000000    -0.693000000     1.285000000
H     0.412000000    -0.995000000     2.315000000
C     0.501000000     0.649000000     1.003000000
H     0.734000000     1.370000000     1.782000000
C     0.196000000     1.191000000    -0.234000000
H     0.333000000     2.306000000    -0.354000000
C    -0.251000000     0.318000000    -1.236000000
H    -0.391000000     0.741000000    -2.227000000
C    -0.334000000    -1.042000000    -0.993000000
H    -0.793000000    -1.638000000    -1.778000000
C    -0.159000000    -1.575000000     0.244000000
C    -0.522000000    -2.958000000     0.536000000
O    -0.199000000    -3.416000000     1.648000000
O    -0.922000000    -3.742000000    -0.304000000
O    -3.033000000    -3.372000000     5.841000000
H    -2.686000000    -2.832000000     5.131000000
H    -3.243000000    -4.208000000     5.425000000
O    -0.267000000    -5.608000000     3.268000000
H    -0.224000000    -4.761000000     2.825000000
H    -0.741000000    -6.174000000     2.659000000
O     1.791000000    -2.978000000     3.591000000
H     2.572000000    -2.768000000     3.078000000
H     1.077000000    -2.971000000     2.953000000
O     1.545000000     3.020000000    -3.528000000
H     1.736000000     2.097000000    -3.361000000
H     1.634000000     3.116000000    -4.476000000
O     3.372000000    -2.180000000     1.353000000
H     3.208000000    -1.366000000     0.877000000
H     4.268000000    -2.420000000     1.115000000
O     2.311000000     0.233000000    -3.581000000
H     1.421000000    -0.120000000    -3.588000000
H     2.864000000    -0.517000000    -3.360000000
O     4.194000000     2.045000000    -2.559000000
H     3.644000000     1.562000000    -3.176000000
H     4.937000000     2.343000000    -3.084000000
O    -3.287000000     0.252000000    -0.799000000
H    -3.132000000     0.944000000    -1.443000000
H    -2.436000000    -0.174000000    -0.695000000
O    -2.749000000    -5.694000000     1.105000000
H    -2.129000000    -5.141000000     0.630000000
H    -2.336000000    -6.558000000     1.122000000
O     0.155000000     4.901000000    -2.294000000
H     0.732000000     4.959000000    -1.532000000
H     0.616000000     4.318000000    -2.898000000
O     4.871000000     4.658000000    -3.959000000
H     4.533000000     4.721000000    -3.065000000
H     5.403000000     3.863000000    -3.958000000
O     3.796000000     4.702000000    -1.542000000
H     2.972000000     4.962000000    -1.130000000
H     3.674000000     3.778000000    -1.762000000
O    -1.830000000     6.790000000    -3.069000000
H    -1.129000000     6.373000000    -2.568000000
H    -1.643000000     7.727000000    -3.011000000
O     2.462000000    -6.151000000     4.368000000
H     1.955000000    -5.597000000     3.775000000
H     2.496000000    -7.002000000     3.932000000
O     5.136000000     0.593000000     3.069000000
H     4.781000000     0.493000000     2.185000000
H     5.987000000     1.011000000     2.939000000
O    -3.769000000     3.196000000     3.896000000
H    -4.365000000     2.623000000     4.379000000
H    -3.199000000     2.597000000     3.415000000
O    -5.419000000    -3.064000000    -2.389000000
H    -5.368000000    -2.581000000    -3.214000000
H    -4.510000000    -3.282000000    -2.183000000
O    -3.939000000     0.384000000    -3.737000000
H    -4.877000000     0.408000000    -3.544000000
H    -3.584000000     1.156000000    -3.297000000
O    -5.079000000    -5.052000000     1.973000000
H    -5.297000000    -4.339000000     1.372000000
H    -4.294000000    -5.450000000     1.598000000
O     3.878000000     0.383000000    -0.154000000
H     3.101000000     0.941000000    -0.129000000
H     4.511000000     0.878000000    -0.674000000
O    -3.322000000     2.838000000    -3.120000000
H    -3.104000000     3.390000000    -3.871000000
H    -3.091000000     3.368000000    -2.357000000
O    -2.189000000    -1.856000000     3.670000000
H    -3.016000000    -2.256000000     3.400000000
H    -1.522000000    -2.325000000     3.169000000
O     2.516000000     4.069000000     2.585000000
H     2.084000000     3.411000000     3.131000000
H     3.446000000     3.848000000     2.634000000
O    -2.038000000    -5.972000000    -3.867000000
H    -2.230000000    -6.180000000    -4.782000000
H    -1.404000000    -6.637000000    -3.599000000
O     1.229000000     6.463000000     3.951000000
H     1.876000000     5.829000000     3.641000000
H     0.637000000     6.583000000     3.209000000
O    -4.270000000     6.182000000    -0.976000000
H    -4.226000000     6.118000000    -0.022000000
H    -3.437000000     5.822000000    -1.279000000
O     0.231000000     7.222000000     0.190000000
H    -0.262000000     7.630000000    -0.522000000
H    -0.358000000     7.264000000     0.943000000
O     0.971000000    -5.039000000    -1.498000000
H     1.623000000    -5.278000000    -0.838000000
H     0.290000000    -4.581000000    -1.007000000
O     2.219000000    -4.569000000     1.130000000
H     1.383000000    -4.126000000     1.272000000
H     2.872000000    -3.872000000     1.184000000
O    -1.289000000     6.966000000     2.409000000
H    -1.584000000     6.096000000     2.139000000
H    -1.816000000     7.169000000     3.181000000
O     4.899000000     3.932000000     0.963000000
H     5.540000000     4.572000000     0.653000000
H     4.280000000     3.844000000     0.239000000
O    -3.742000000    -6.513000000    -1.357000000
H    -3.512000000    -5.765000000    -1.908000000
H    -3.408000000    -6.284000000    -0.490000000
O    -0.698000000    -5.489000000     5.962000000
H    -1.647000000    -5.372000000     5.982000000
H    -0.478000000    -5.512000000     5.031000000
O    -1.360000000    -7.987000000     1.366000000
H    -1.203000000    -8.606000000     2.079000000
H    -0.614000000    -8.104000000     0.778000000
O    -2.764000000    -3.826000000    -2.114000000
H    -2.559000000    -4.381000000    -2.867000000
H    -2.050000000    -3.988000000    -1.497000000
O    -1.011000000     4.224000000     1.355000000
H    -1.017000000     3.294000000     1.579000000
H    -0.393000000     4.291000000     0.626000000
O     2.471000000    -3.153000000     6.278000000
H     2.245000000    -4.084000000     6.263000000
H     2.246000000    -2.838000000     5.403000000
O    -2.360000000     4.737000000    -4.774000000
H    -3.009000000     5.096000000    -5.379000000
H    -2.234000000     5.426000000    -4.121000000
O    -3.081000000    -5.697000000     4.170000000
H    -3.544000000    -5.604000000     3.337000000
H    -3.496000000    -6.448000000     4.592000000
O     0.861000000     2.722000000     4.279000000
H     0.878000000     3.046000000     5.180000000
H     0.250000000     1.986000000     4.301000000
O     1.046000000    -4.087000000    -3.935000000
H     0.882000000    -4.470000000    -3.073000000
H     1.999000000    -4.091000000    -4.021000000
O    -2.288000000     4.363000000    -1.331000000
H    -1.408000000     4.466000000    -1.693000000
H    -2.165000000     4.421000000    -0.383000000
O     0.174000000    -1.261000000    -4.001000000
H    -0.765000000    -1.380000000    -4.144000000
H     0.542000000    -2.141000000    -4.074000000
O    -0.508000000     0.318000000     4.711000000
H    -0.296000000     0.129000000     5.625000000
H    -0.743000000    -0.532000000     4.339000000
O     1.626000000     4.702000000     0.090000000
H     1.256000000     5.584000000     0.064000000
H     1.983000000     4.617000000     0.974000000
O    -2.375000000    -1.926000000    -4.163000000
H    -3.056000000    -1.293000000    -4.392000000
H    -2.751000000    -2.430000000    -3.441000000
O    -5.557000000    -3.224000000     0.274000000
H    -5.817000000    -3.389000000    -0.632000000
H    -5.003000000    -2.445000000     0.226000000
O    -2.130000000     1.374000000     2.269000000
H    -1.423000000     0.909000000     2.718000000
H    -2.078000000     1.071000000     1.363000000
