158
-3030.39021
C     0.094000000     0.678000000     1.309000000
H     0.141000000     1.351000000     2.162000000
C     0.194000000     1.269000000     0.064000000
H     0.358000000     2.318000000    -0.170000000
C     0.197000000     0.489000000    -1.069000000
H     0.373000000     0.940000000    -1.993000000
C     0.019000000    -0.892000000    -1.006000000
H    -0.086000000    -1.506000000    -1.897000000
C    -0.091000000    -1.465000000     0.244000000
H    -0.375000000    -2.514000000     0.244000000
C    -0.101000000    -0.667000000     1.442000000
C    -0.335000000    -1.222000000     2.796000000
O    -0.638000000    -0.398000000     3.693000000
O    -0.537000000    -2.373000000     3.030000000
O     3.492000000    -4.880000000     0.508000000
H     4.002000000    -5.599000000     0.882000000
H     2.808000000    -4.710000000     1.156000000
O    -0.922000000    -3.623000000     5.388000000
H    -0.228000000    -3.194000000     5.889000000
H    -0.906000000    -3.188000000     4.535000000
O     2.961000000    -5.291000000     4.160000000
H     2.265000000    -4.916000000     3.620000000
H     3.449000000    -5.857000000     3.563000000
O    -3.128000000    -5.641000000     0.455000000
H    -3.347000000    -5.364000000    -0.435000000
H    -2.364000000    -6.208000000     0.348000000
O    -2.718000000     2.840000000     0.300000000
H    -1.919000000     2.829000000     0.827000000
H    -2.744000000     3.719000000    -0.078000000
O     4.805000000     1.025000000    -3.973000000
H     5.129000000     1.523000000    -3.223000000
H     4.142000000     0.441000000    -3.604000000
O    -1.830000000     1.931000000     3.893000000
H    -1.549000000     1.047000000     3.657000000
H    -1.015000000     2.412000000     4.038000000
O     2.641000000    -1.293000000     3.950000000
H     3.007000000    -0.746000000     4.646000000
H     2.129000000    -1.957000000     4.412000000
O     2.902000000    -3.339000000    -1.839000000
H     2.827000000    -3.846000000    -1.030000000
H     3.675000000    -3.697000000    -2.275000000
O    -2.643000000    -0.541000000     5.664000000
H    -2.389000000     0.271000000     6.103000000
H    -1.912000000    -0.733000000     5.076000000
O     1.291000000     1.363000000    -5.040000000
H     0.529000000     0.901000000    -4.689000000
H     1.388000000     2.130000000    -4.475000000
O     2.337000000     2.956000000     1.772000000
H     2.637000000     3.806000000     2.095000000
H     2.915000000     2.322000000     2.196000000
O    -4.453000000     0.209000000    -3.165000000
H    -3.625000000     0.154000000    -2.689000000
H    -5.123000000     0.203000000    -2.481000000
O    -3.192000000    -3.331000000     2.173000000
H    -2.239000000    -3.250000000     2.203000000
H    -3.360000000    -3.932000000     1.448000000
O     1.051000000    -3.711000000    -4.356000000
H     1.592000000    -3.652000000    -3.568000000
H     1.075000000    -2.831000000    -4.730000000
O     1.569000000     3.699000000    -3.356000000
H     0.794000000     4.185000000    -3.641000000
H     1.997000000     4.280000000    -2.727000000
O     1.257000000    -4.216000000     2.333000000
H     0.595000000    -3.589000000     2.624000000
H     0.756000000    -4.994000000     2.084000000
O    -0.116000000    -5.931000000    -3.109000000
H     0.200000000    -5.099000000    -3.461000000
H    -0.687000000    -6.279000000    -3.794000000
O     3.005000000     2.234000000    -0.897000000
H     2.799000000     2.593000000    -0.033000000
H     2.661000000     2.881000000    -1.513000000
O     0.671000000     3.372000000     3.804000000
H     0.700000000     4.294000000     4.058000000
H     1.170000000     3.332000000     2.988000000
O     5.696000000     1.629000000    -1.112000000
H     4.759000000     1.815000000    -1.059000000
H     5.793000000     0.771000000    -0.697000000
O    -0.315000000     5.764000000    -4.655000000
H     0.091000000     6.327000000    -5.313000000
H    -0.680000000     5.034000000    -5.155000000
O     0.137000000     2.066000000     8.085000000
H     0.616000000     1.660000000     7.362000000
H     0.815000000     2.302000000     8.718000000
O    -4.483000000    -1.553000000    -0.621000000
H    -4.031000000    -2.039000000    -1.311000000
H    -4.141000000    -0.662000000    -0.691000000
O    -0.555000000    -6.403000000     5.705000000
H    -0.855000000    -6.773000000     6.535000000
H    -0.621000000    -5.456000000     5.826000000
O     3.439000000     5.254000000    -5.554000000
H     3.094000000     4.793000000    -4.789000000
H     3.948000000     4.593000000    -6.023000000
O    -2.241000000    -2.489000000    -3.080000000
H    -1.621000000    -1.760000000    -3.104000000
H    -2.844000000    -2.315000000    -3.803000000
O    -1.983000000     2.805000000    -3.303000000
H    -2.686000000     3.329000000    -3.687000000
H    -2.242000000     2.690000000    -2.388000000
O     4.580000000     2.371000000    -6.433000000
H     4.339000000     1.772000000    -5.727000000
H     5.315000000     1.943000000    -6.871000000
O    -3.569000000    -4.097000000     6.482000000
H    -4.129000000    -4.040000000     5.708000000
H    -2.756000000    -3.663000000     6.223000000
O    -0.570000000    -0.568000000    -7.270000000
H     0.130000000    -0.518000000    -6.618000000
H    -0.513000000     0.260000000    -7.747000000
O     3.240000000    -0.341000000    -2.371000000
H     2.952000000    -1.239000000    -2.209000000
H     2.671000000     0.196000000    -1.821000000
O     1.404000000     6.424000000     0.453000000
H     1.322000000     6.960000000    -0.336000000
H     0.569000000     6.537000000     0.907000000
O    -4.101000000     3.225000000     3.553000000
H    -3.233000000     2.852000000     3.703000000
H    -4.603000000     2.512000000     3.158000000
O     1.059000000     1.093000000     5.611000000
H     1.299000000     1.841000000     5.064000000
H     0.623000000     0.488000000     5.012000000
O    -2.036000000     5.090000000    -1.141000000
H    -1.759000000     4.738000000    -1.987000000
H    -2.126000000     6.031000000    -1.291000000
O     1.640000000     1.690000000    -7.943000000
H     1.487000000     1.505000000    -7.017000000
H     2.392000000     1.144000000    -8.175000000
O    -3.730000000    -4.520000000    -2.074000000
H    -3.194000000    -3.852000000    -2.502000000
H    -3.763000000    -5.240000000    -2.704000000
O     4.164000000     1.387000000     3.531000000
H     4.052000000     0.750000000     2.825000000
H     4.169000000     0.861000000     4.330000000
O    -3.968000000    -0.718000000     3.040000000
H    -3.472000000    -1.492000000     2.774000000
H    -3.325000000    -0.161000000     3.479000000
O    -5.087000000    -3.774000000     4.174000000
H    -5.849000000    -3.968000000     3.628000000
H    -4.363000000    -3.692000000     3.553000000
O     3.515000000     5.063000000    -1.324000000
H     4.086000000     4.616000000    -0.699000000
H     2.912000000     5.567000000    -0.778000000
O     1.391000000    -2.374000000     6.301000000
H     2.130000000    -2.911000000     6.586000000
H     0.946000000    -2.129000000     7.113000000
O     1.513000000    -1.270000000    -5.544000000
H     1.573000000    -0.334000000    -5.353000000
H     2.200000000    -1.427000000    -6.191000000
O    -1.634000000     0.265000000    -4.397000000
H    -1.933000000     1.019000000    -3.890000000
H    -2.101000000     0.335000000    -5.229000000
O    -1.416000000     3.782000000    -6.297000000
H    -2.080000000     4.362000000    -6.671000000
H    -1.914000000     3.145000000    -5.786000000
O     3.077000000    -0.055000000     1.355000000
H     2.828000000    -0.817000000     1.879000000
H     2.257000000     0.240000000     0.958000000
O    -2.766000000     0.544000000    -0.972000000
H    -2.487000000     1.346000000    -0.531000000
H    -1.970000000     0.015000000    -1.033000000
