158
-3001.74219
C    -0.897000000     0.446000000     1.047000000
H    -1.430000000     0.975000000     1.833000000
C     0.076000000     1.206000000     0.423000000
H     0.264000000     2.198000000     0.827000000
C     0.879000000     0.666000000    -0.574000000
H     1.663000000     1.245000000    -1.126000000
C     0.629000000    -0.585000000    -1.033000000
H     1.207000000    -0.979000000    -1.865000000
C    -0.218000000    -1.455000000    -0.257000000
H    -0.471000000    -2.436000000    -0.651000000
C    -1.070000000    -0.925000000     0.764000000
C    -1.998000000    -1.733000000     1.571000000
O    -2.594000000    -1.315000000     2.563000000
O    -2.300000000    -2.833000000     1.194000000
O    -1.419000000    -3.405000000     6.554000000
H    -0.930000000    -2.591000000     6.672000000
H    -2.311000000    -3.123000000     6.353000000
O     0.215000000     2.334000000     4.538000000
H     0.889000000     1.945000000     5.096000000
H    -0.138000000     1.597000000     4.040000000
O    -0.528000000    -4.441000000     4.035000000
H    -0.264000000    -3.661000000     3.548000000
H    -0.788000000    -4.109000000     4.895000000
O     5.313000000    -0.312000000    -1.115000000
H     4.443000000    -0.685000000    -0.977000000
H     5.154000000     0.490000000    -1.614000000
O    -1.506000000    -6.700000000    -1.391000000
H    -1.287000000    -6.034000000    -0.740000000
H    -2.193000000    -7.223000000    -0.977000000
O    -6.004000000    -5.632000000    -0.537000000
H    -5.149000000    -5.224000000    -0.401000000
H    -6.630000000    -4.912000000    -0.448000000
O     7.811000000     0.579000000    -0.991000000
H     8.457000000     0.147000000    -1.550000000
H     6.994000000     0.110000000    -1.162000000
O     1.760000000    -0.732000000     1.882000000
H     1.833000000    -1.625000000     1.543000000
H     1.261000000    -0.263000000     1.213000000
O    -3.535000000     2.250000000     5.287000000
H    -4.354000000     2.729000000     5.160000000
H    -2.924000000     2.654000000     4.672000000
O    -4.028000000    -0.859000000     4.640000000
H    -3.722000000    -0.895000000     3.734000000
H    -3.657000000    -0.047000000     4.986000000
O    -0.819000000    -5.183000000     0.612000000
H    -1.126000000    -4.843000000     1.452000000
H     0.028000000    -5.582000000     0.811000000
O    -1.676000000     5.512000000     1.431000000
H    -1.502000000     5.741000000     0.518000000
H    -1.539000000     6.328000000     1.912000000
O    -3.623000000     2.558000000     0.572000000
H    -4.089000000     2.612000000     1.406000000
H    -3.040000000     3.317000000     0.573000000
O     0.591000000     0.926000000    -4.840000000
H     0.188000000     1.784000000    -4.970000000
H     1.326000000     0.911000000    -5.452000000
O    -5.678000000     0.528000000     1.600000000
H    -5.859000000     1.183000000     2.274000000
H    -5.600000000     1.032000000     0.790000000
O     3.946000000    -3.120000000    -3.098000000
H     3.242000000    -2.795000000    -3.660000000
H     4.553000000    -2.384000000    -3.024000000
O    -4.116000000    -3.182000000     6.104000000
H    -4.847000000    -2.814000000     6.601000000
H    -4.060000000    -2.636000000     5.320000000
O    -2.206000000    -3.476000000    -4.257000000
H    -2.156000000    -2.581000000    -3.922000000
H    -3.046000000    -3.515000000    -4.714000000
O     3.467000000     0.541000000    -3.184000000
H     2.680000000     0.559000000    -3.730000000
H     4.121000000     0.095000000    -3.722000000
O    -1.548000000     2.076000000    -2.302000000
H    -0.876000000     1.755000000    -1.701000000
H    -2.295000000     1.496000000    -2.157000000
O    -0.639000000    -1.449000000    -5.792000000
H    -0.332000000    -0.680000000    -5.311000000
H    -1.393000000    -1.135000000    -6.290000000
O     2.670000000     0.828000000    -6.412000000
H     3.561000000     1.179000000    -6.434000000
H     2.410000000     0.778000000    -7.332000000
O     5.413000000    -1.038000000    -4.429000000
H     5.099000000    -0.973000000    -5.331000000
H     6.213000000    -0.513000000    -4.415000000
O     2.157000000     5.888000000     0.961000000
H     2.050000000     5.373000000     1.761000000
H     3.045000000     5.688000000     0.665000000
O     1.367000000    -3.543000000     1.607000000
H     1.361000000    -4.340000000     1.077000000
H     2.027000000    -3.709000000     2.281000000
O     1.075000000     5.536000000    -3.784000000
H     1.063000000     6.218000000    -3.113000000
H     1.374000000     4.752000000    -3.324000000
O    -0.672000000    -6.284000000    -4.128000000
H    -0.700000000    -6.495000000    -3.195000000
H    -1.015000000    -5.392000000    -4.182000000
O     3.302000000     3.015000000    -0.086000000
H     2.840000000     3.269000000    -0.885000000
H     4.215000000     3.248000000    -0.253000000
O    -3.691000000    -4.222000000    -0.644000000
H    -3.060000000    -4.789000000    -1.087000000
H    -3.173000000    -3.756000000     0.013000000
O     2.879000000     3.682000000    -2.823000000
H     3.372000000     4.000000000    -3.580000000
H     3.048000000     2.740000000    -2.805000000
O    -3.870000000     0.497000000    -1.014000000
H    -3.707000000     1.287000000    -0.498000000
H    -3.669000000    -0.224000000    -0.416000000
O     1.708000000     4.113000000     3.068000000
H     1.057000000     4.051000000     3.767000000
H     1.865000000     3.206000000     2.806000000
O    -3.809000000    -4.302000000     2.900000000
H    -3.365000000    -3.768000000     2.242000000
H    -3.126000000    -4.517000000     3.535000000
O    -5.514000000    -6.662000000     2.776000000
H    -5.076000000    -5.817000000     2.675000000
H    -4.975000000    -7.272000000     2.273000000
O    -1.479000000    -7.092000000     3.400000000
H    -1.157000000    -7.583000000     4.156000000
H    -1.093000000    -6.221000000     3.498000000
O    -0.137000000     6.510000000    -0.877000000
H     0.612000000     6.369000000    -0.298000000
H     0.167000000     7.163000000    -1.508000000
O    -7.216000000    -2.949000000    -0.393000000
H    -6.591000000    -2.740000000     0.301000000
H    -6.803000000    -2.624000000    -1.193000000
O     6.875000000     2.367000000     2.459000000
H     6.129000000     1.841000000     2.172000000
H     6.552000000     2.843000000     3.225000000
O     1.841000000    -2.119000000    -4.565000000
H     1.122000000    -1.509000000    -4.728000000
H     1.914000000    -2.626000000    -5.374000000
O    -5.636000000    -2.037000000     1.635000000
H    -5.675000000    -1.092000000     1.785000000
H    -4.978000000    -2.350000000     2.256000000
O    -0.029000000    -1.483000000     3.829000000
H    -0.916000000    -1.423000000     3.473000000
H     0.540000000    -1.276000000     3.088000000
O    -1.954000000     3.315000000    -4.565000000
H    -1.560000000     4.183000000    -4.658000000
H    -1.538000000     2.946000000    -3.786000000
O     3.640000000     1.386000000     2.574000000
H     3.457000000     1.809000000     1.735000000
H     3.014000000     0.664000000     2.620000000
O     6.711000000     4.165000000    -2.868000000
H     7.468000000     4.635000000    -2.519000000
H     6.305000000     3.763000000    -2.100000000
O    -4.941000000    -2.800000000    -2.540000000
H    -4.520000000    -1.963000000    -2.732000000
H    -4.409000000    -3.181000000    -1.841000000
O    -2.128000000     3.887000000     3.503000000
H    -2.261000000     4.488000000     2.771000000
H    -1.181000000     3.754000000     3.535000000
O     0.995000000    -1.317000000     6.608000000
H     1.598000000    -0.575000000     6.653000000
H     0.760000000    -1.378000000     5.682000000
O     6.109000000     3.207000000    -0.483000000
H     6.844000000     2.597000000    -0.422000000
H     6.447000000     4.027000000    -0.123000000
