158
-3028.84572
C     0.891000000    -0.051000000     1.221000000
H     1.517000000    -0.043000000     2.111000000
C     1.077000000     0.711000000     0.056000000
H     1.958000000     1.347000000     0.022000000
C     0.177000000     0.735000000    -0.980000000
H     0.151000000     1.500000000    -1.751000000
C    -0.857000000    -0.165000000    -1.005000000
H    -1.547000000    -0.139000000    -1.845000000
C    -0.966000000    -1.055000000     0.053000000
H    -1.811000000    -1.737000000     0.113000000
C    -0.135000000    -0.954000000     1.154000000
C    -0.513000000    -1.710000000     2.475000000
O     0.338000000    -2.027000000     3.338000000
O    -1.644000000    -2.140000000     2.673000000
O    -1.653000000    -2.332000000     5.262000000
H    -0.824000000    -2.459000000     5.723000000
H    -1.403000000    -2.218000000     4.345000000
O     4.345000000    -4.241000000     5.299000000
H     3.836000000    -3.616000000     4.784000000
H     3.767000000    -4.998000000     5.397000000
O     2.632000000    -6.214000000     5.017000000
H     2.238000000    -6.012000000     4.169000000
H     1.939000000    -6.032000000     5.652000000
O    -4.865000000    -1.386000000    -2.017000000
H    -4.162000000    -1.317000000    -2.662000000
H    -5.536000000    -1.913000000    -2.450000000
O    -2.950000000     2.031000000     0.448000000
H    -2.356000000     1.303000000     0.265000000
H    -2.390000000     2.806000000     0.440000000
O    -6.263000000    -1.692000000     2.391000000
H    -5.649000000    -1.812000000     1.666000000
H    -7.127000000    -1.772000000     1.989000000
O     5.819000000     2.042000000    -1.660000000
H     6.094000000     2.401000000    -0.817000000
H     4.993000000     2.487000000    -1.852000000
O    -1.638000000     4.419000000    -1.693000000
H    -1.756000000     5.341000000    -1.921000000
H    -0.804000000     4.393000000    -1.225000000
O    -1.330000000     0.669000000     4.431000000
H    -2.004000000     0.440000000     3.791000000
H    -1.086000000    -0.165000000     4.832000000
O     3.237000000    -2.877000000    -3.446000000
H     4.085000000    -2.478000000    -3.251000000
H     2.710000000    -2.716000000    -2.663000000
O    -3.477000000    -0.351000000     2.786000000
H    -2.910000000    -1.120000000     2.725000000
H    -4.288000000    -0.618000000     2.352000000
O    -6.100000000     0.972000000    -0.698000000
H    -5.277000000     1.385000000    -0.961000000
H    -5.940000000     0.034000000    -0.800000000
O     0.893000000    -4.779000000     6.903000000
H     0.841000000    -3.828000000     6.812000000
H     1.354000000    -4.915000000     7.731000000
O     1.993000000     2.115000000    -4.415000000
H     1.862000000     1.182000000    -4.248000000
H     1.255000000     2.364000000    -4.972000000
O    -0.595000000     2.317000000     6.349000000
H    -1.304000000     2.947000000     6.477000000
H    -0.785000000     1.911000000     5.504000000
O    -4.475000000    -2.393000000     0.536000000
H    -3.726000000    -2.977000000     0.658000000
H    -4.290000000    -1.936000000    -0.285000000
O     0.601000000     3.967000000     0.004000000
H     1.278000000     4.567000000     0.317000000
H     0.416000000     3.402000000     0.754000000
O    -2.359000000    -4.113000000     0.971000000
H    -2.231000000    -3.658000000     1.803000000
H    -2.375000000    -5.041000000     1.204000000
O     2.923000000    -0.899000000    -7.002000000
H     2.607000000    -0.327000000    -6.303000000
H     2.138000000    -1.343000000    -7.321000000
O    -5.698000000    -4.807000000     2.814000000
H    -5.700000000    -3.947000000     2.394000000
H    -5.164000000    -5.354000000     2.238000000
O     1.502000000    -0.743000000    -4.592000000
H     1.895000000    -1.599000000    -4.421000000
H     0.589000000    -0.936000000    -4.804000000
O    -2.025000000     6.744000000    -2.905000000
H    -2.535000000     7.527000000    -3.113000000
H    -1.890000000     6.314000000    -3.749000000
O     2.612000000    -2.165000000     4.619000000
H     1.825000000    -2.053000000     4.085000000
H     2.287000000    -2.203000000     5.519000000
O     2.399000000    -2.300000000    -0.878000000
H     2.523000000    -1.353000000    -0.820000000
H     3.052000000    -2.664000000    -0.281000000
O     3.000000000     3.233000000    -1.934000000
H     2.185000000     3.448000000    -1.480000000
H     2.724000000     2.718000000    -2.692000000
O    -0.414000000     2.905000000     2.786000000
H     0.323000000     2.296000000     2.832000000
H    -1.099000000     2.493000000     3.312000000
O    -2.140000000    -3.880000000    -2.182000000
H    -1.602000000    -4.205000000    -1.461000000
H    -3.041000000    -4.008000000    -1.885000000
O    -0.546000000     3.594000000    -5.476000000
H    -1.045000000     4.352000000    -5.779000000
H    -1.140000000     3.141000000    -4.877000000
O    -1.395000000     5.901000000     0.954000000
H    -0.710000000     5.286000000     0.694000000
H    -2.106000000     5.347000000     1.275000000
O     1.041000000    -5.023000000     2.784000000
H     0.565000000    -4.213000000     2.603000000
H     1.746000000    -5.037000000     2.137000000
O     1.039000000     5.028000000    -3.679000000
H     0.567000000     4.241000000    -3.950000000
H     1.761000000     5.101000000    -4.303000000
O    -3.863000000     2.021000000    -6.140000000
H    -3.538000000     2.369000000    -5.309000000
H    -4.774000000     2.310000000    -6.181000000
O     0.160000000    -3.543000000    -3.797000000
H    -0.503000000    -3.863000000    -3.186000000
H     0.957000000    -4.014000000    -3.554000000
O    -0.699000000    -7.109000000     3.603000000
H    -1.613000000    -6.846000000     3.501000000
H    -0.198000000    -6.325000000     3.380000000
O    -4.423000000     2.190000000     3.337000000
H    -3.898000000     1.409000000     3.163000000
H    -5.133000000     2.148000000     2.697000000
O     5.195000000     2.860000000     0.837000000
H     4.353000000     2.406000000     0.838000000
H     5.196000000     3.367000000     1.649000000
O    -0.048000000    -4.106000000    -0.568000000
H     0.593000000    -3.412000000    -0.717000000
H    -0.658000000    -3.737000000     0.070000000
O    -4.198000000    -3.645000000     5.512000000
H    -3.654000000    -4.405000000     5.302000000
H    -3.576000000    -2.922000000     5.596000000
O     5.105000000    -0.593000000    -1.287000000
H     4.907000000    -0.424000000    -2.208000000
H     5.567000000     0.192000000    -0.993000000
O    -4.803000000     3.800000000    -1.828000000
H    -5.108000000     4.579000000    -1.364000000
H    -3.981000000     4.070000000    -2.237000000
O     3.932000000     5.525000000    -3.223000000
H     3.437000000     4.733000000    -3.014000000
H     4.709000000     5.476000000    -2.666000000
O     4.285000000     2.754000000    -5.782000000
H     5.097000000     2.648000000    -5.288000000
H     3.600000000     2.457000000    -5.183000000
O    -5.441000000    -1.218000000     5.047000000
H    -4.935000000    -2.029000000     4.997000000
H    -5.797000000    -1.104000000     4.166000000
O     1.203000000    -2.070000000     7.489000000
H     1.869000000    -2.181000000     8.168000000
H     0.766000000    -1.248000000     7.714000000
O    -1.124000000    -1.430000000    -5.213000000
H    -2.030000000    -1.234000000    -5.454000000
H    -1.172000000    -2.277000000    -4.770000000
O     3.471000000     0.804000000     4.135000000
H     3.231000000     1.173000000     4.985000000
H     3.088000000    -0.074000000     4.138000000
O    -1.959000000     2.580000000    -3.554000000
H    -2.396000000     1.805000000    -3.203000000
H    -1.898000000     3.179000000    -2.809000000
O     5.924000000     0.579000000     2.889000000
H     6.082000000    -0.364000000     2.848000000
H     5.085000000     0.662000000     3.344000000
