158
-3000.86955
C    -1.165000000     0.625000000     0.604000000
H    -1.892000000     1.085000000     1.269000000
C    -0.049000000     1.352000000     0.094000000
H    -0.016000000     2.426000000    -0.074000000
C     0.989000000     0.617000000    -0.433000000
H     1.903000000     1.094000000    -0.879000000
C     0.876000000    -0.789000000    -0.658000000
H     1.689000000    -1.321000000    -1.147000000
C    -0.224000000    -1.494000000    -0.090000000
H    -0.387000000    -2.568000000    -0.072000000
C    -1.256000000    -0.786000000     0.498000000
C    -2.476000000    -1.462000000     1.042000000
O    -3.313000000    -0.802000000     1.579000000
O    -2.744000000    -2.632000000     0.818000000
O     0.508000000    -3.326000000     3.487000000
H     0.662000000    -2.713000000     2.769000000
H     0.407000000    -4.176000000     3.059000000
O    -2.765000000     3.225000000     4.412000000
H    -2.951000000     3.059000000     5.336000000
H    -3.599000000     3.526000000     4.050000000
O    -3.798000000    -4.451000000     4.384000000
H    -3.246000000    -4.994000000     3.821000000
H    -3.229000000    -4.209000000     5.114000000
O     6.663000000    -0.639000000    -0.377000000
H     5.998000000    -0.655000000    -1.066000000
H     6.531000000    -1.458000000     0.101000000
O     2.796000000    -3.764000000    -1.384000000
H     2.749000000    -3.308000000    -0.544000000
H     3.617000000    -3.465000000    -1.774000000
O    -5.696000000     0.778000000     1.384000000
H    -5.873000000     0.607000000     2.309000000
H    -4.794000000     0.484000000     1.254000000
O     2.924000000    -2.974000000     1.246000000
H     3.570000000    -3.368000000     1.833000000
H     2.792000000    -2.092000000     1.594000000
O     7.059000000     3.122000000    -1.605000000
H     7.472000000     3.968000000    -1.778000000
H     6.911000000     2.745000000    -2.472000000
O    -3.890000000    -7.293000000     1.927000000
H    -4.401000000    -7.074000000     2.706000000
H    -3.194000000    -6.637000000     1.904000000
O    -6.689000000    -0.372000000    -2.772000000
H    -6.193000000    -0.633000000    -1.996000000
H    -6.350000000     0.496000000    -2.991000000
O    -6.269000000     0.730000000     4.378000000
H    -7.198000000     0.958000000     4.394000000
H    -6.222000000    -0.117000000     4.822000000
O    -4.275000000    -1.593000000     3.764000000
H    -3.856000000    -1.335000000     2.943000000
H    -4.217000000    -2.549000000     3.771000000
O    -2.265000000    -4.971000000     1.780000000
H    -2.416000000    -4.119000000     1.369000000
H    -1.315000000    -5.085000000     1.751000000
O     0.611000000    -4.280000000    -2.826000000
H     1.309000000    -3.984000000    -2.242000000
H     0.855000000    -3.936000000    -3.685000000
O    -5.298000000    -3.435000000     1.403000000
H    -4.350000000    -3.311000000     1.443000000
H    -5.659000000    -2.671000000     1.852000000
O    -5.057000000     3.936000000     2.891000000
H    -4.445000000     3.365000000     2.427000000
H    -5.766000000     4.087000000     2.265000000
O     4.675000000     0.407000000    -2.952000000
H     3.782000000     0.108000000    -3.124000000
H     4.565000000     1.173000000    -2.389000000
O     1.347000000    -2.925000000    -5.024000000
H     1.885000000    -3.556000000    -5.502000000
H     1.392000000    -2.126000000    -5.549000000
O     3.555000000     3.654000000    -4.371000000
H     3.229000000     3.300000000    -3.543000000
H     4.502000000     3.719000000    -4.247000000
O    -3.029000000     0.428000000     5.510000000
H    -2.767000000     1.163000000     4.955000000
H    -3.446000000    -0.189000000     4.910000000
O    -1.158000000     1.025000000    -3.015000000
H    -1.228000000     0.234000000    -3.550000000
H    -0.896000000     0.706000000    -2.151000000
O     2.058000000    -0.157000000    -3.878000000
H     2.059000000    -0.079000000    -4.832000000
H     1.250000000    -0.628000000    -3.677000000
O     2.504000000     5.964000000    -3.154000000
H     3.020000000     5.329000000    -3.651000000
H     1.671000000     5.522000000    -2.992000000
O     0.682000000    -5.504000000     1.881000000
H     1.487000000    -5.238000000     1.437000000
H     0.527000000    -6.399000000     1.581000000
O     2.598000000     5.323000000     2.970000000
H     3.155000000     4.635000000     3.333000000
H     3.211000000     5.949000000     2.583000000
O    -1.651000000    -5.567000000    -3.589000000
H    -0.923000000    -5.229000000    -3.068000000
H    -1.279000000    -5.704000000    -4.461000000
O     3.958000000     3.684000000     0.916000000
H     3.291000000     3.043000000     1.163000000
H     4.545000000     3.722000000     1.670000000
O    -6.666000000    -2.077000000     4.753000000
H    -5.762000000    -1.893000000     4.500000000
H    -6.601000000    -2.415000000     5.646000000
O    -2.198000000    -2.808000000    -1.913000000
H    -1.773000000    -3.610000000    -2.219000000
H    -2.249000000    -2.912000000    -0.963000000
O    -0.111000000     5.336000000    -2.101000000
H    -0.240000000     6.240000000    -1.812000000
H    -0.747000000     4.830000000    -1.595000000
O    -4.684000000    -6.113000000    -0.282000000
H    -4.279000000    -6.615000000     0.425000000
H    -4.789000000    -5.233000000     0.079000000
O    -2.020000000     4.200000000    -0.530000000
H    -2.013000000     4.332000000     0.418000000
H    -2.627000000     4.863000000    -0.860000000
O     2.283000000     2.109000000     2.783000000
H     3.036000000     2.442000000     3.271000000
H     1.607000000     2.776000000     2.901000000
O    -6.640000000    -3.078000000    -1.184000000
H    -6.048000000    -2.329000000    -1.256000000
H    -6.461000000    -3.443000000    -0.317000000
O    -1.412000000     6.120000000     2.152000000
H    -0.937000000     6.817000000     1.699000000
H    -1.299000000     6.318000000     3.081000000
O     2.871000000     3.474000000    -1.725000000
H     3.465000000     3.333000000    -0.987000000
H     2.048000000     3.750000000    -1.320000000
O     5.665000000     0.129000000     2.982000000
H     6.085000000    -0.644000000     2.604000000
H     5.399000000     0.652000000     2.226000000
O    -3.268000000     2.333000000    -1.973000000
H    -2.477000000     1.958000000    -2.360000000
H    -2.953000000     3.072000000    -1.453000000
O     2.731000000    -6.442000000    -1.956000000
H     1.784000000    -6.440000000    -2.098000000
H     2.911000000    -5.601000000    -1.535000000
O    -4.806000000    -1.186000000    -1.129000000
H    -4.020000000    -1.405000000    -1.631000000
H    -4.473000000    -0.857000000    -0.294000000
O     5.492000000    -3.344000000    -0.601000000
H     4.925000000    -3.774000000     0.040000000
H     6.120000000    -4.020000000    -0.856000000
O     0.237000000     2.278000000    -5.078000000
H     1.147000000     2.468000000    -4.849000000
H    -0.137000000     1.902000000    -4.282000000
O     5.982000000     1.667000000     0.659000000
H     6.247000000     0.850000000     0.237000000
H     6.355000000     2.354000000     0.107000000
O    -1.057000000    -1.505000000    -3.911000000
H    -0.326000000    -2.009000000    -4.269000000
H    -1.498000000    -2.112000000    -3.317000000
O    -1.242000000     3.367000000     2.149000000
H    -1.381000000     4.294000000     2.342000000
H    -1.654000000     2.905000000     2.879000000
O     1.901000000    -0.429000000     2.109000000
H     1.128000000    -0.346000000     1.551000000
H     2.123000000     0.472000000     2.344000000
O    -7.831000000    -0.067000000     0.001000000
H    -7.590000000    -0.847000000    -0.499000000
H    -7.021000000     0.197000000     0.437000000
O     4.953000000     5.847000000    -1.280000000
H     4.772000000     5.142000000    -0.658000000
H     4.304000000     5.728000000    -1.973000000
