158
-3043.37566
C    -0.888000000     0.666000000     0.957000000
H    -1.535000000     1.216000000     1.636000000
C     0.132000000     1.310000000     0.229000000
H     0.213000000     2.394000000     0.213000000
C     0.864000000     0.563000000    -0.657000000
H     1.554000000     1.087000000    -1.306000000
C     0.730000000    -0.828000000    -0.784000000
H     1.306000000    -1.383000000    -1.521000000
C    -0.235000000    -1.471000000    -0.024000000
H    -0.374000000    -2.538000000    -0.176000000
C    -1.120000000    -0.720000000     0.818000000
C    -2.083000000    -1.418000000     1.766000000
O    -2.362000000    -0.832000000     2.841000000
O    -2.354000000    -2.615000000     1.540000000
O     0.687000000     2.045000000     4.594000000
H     0.736000000     2.017000000     5.550000000
H     0.395000000     1.168000000     4.344000000
O     5.089000000    -0.881000000     0.001000000
H     4.879000000    -1.621000000    -0.568000000
H     4.352000000    -0.829000000     0.609000000
O     2.674000000    -4.960000000     0.218000000
H     2.984000000    -4.703000000     1.087000000
H     3.002000000    -4.276000000    -0.365000000
O    -6.850000000     0.969000000     3.171000000
H    -5.971000000     1.156000000     2.840000000
H    -7.370000000     0.797000000     2.386000000
O     0.106000000    -5.603000000    -0.225000000
H     1.004000000    -5.302000000    -0.360000000
H    -0.085000000    -5.387000000     0.687000000
O    -6.991000000    -3.390000000     1.711000000
H    -6.674000000    -2.634000000     1.218000000
H    -6.198000000    -3.799000000     2.059000000
O     6.585000000     1.183000000    -0.980000000
H     6.675000000     0.921000000    -1.897000000
H     5.971000000     0.550000000    -0.609000000
O     2.788000000    -0.297000000     1.677000000
H     2.612000000    -0.851000000     2.437000000
H     1.964000000    -0.289000000     1.191000000
O    -4.197000000     3.434000000     4.579000000
H    -4.321000000     3.920000000     5.394000000
H    -3.488000000     3.894000000     4.131000000
O    -4.522000000    -1.546000000     4.049000000
H    -3.763000000    -1.469000000     3.470000000
H    -5.165000000    -0.940000000     3.681000000
O    -0.713000000    -4.325000000     2.185000000
H    -1.293000000    -3.579000000     2.029000000
H    -1.093000000    -4.771000000     2.941000000
O    -0.566000000     5.032000000     1.401000000
H     0.374000000     5.134000000     1.251000000
H    -0.837000000     5.862000000     1.793000000
O    -2.485000000    -5.911000000    -1.387000000
H    -2.797000000    -6.726000000    -0.994000000
H    -1.555000000    -5.877000000    -1.164000000
O     3.310000000    -0.261000000    -3.396000000
H     3.623000000     0.617000000    -3.180000000
H     3.713000000    -0.459000000    -4.241000000
O    -4.300000000     1.359000000     2.724000000
H    -4.176000000     2.190000000     3.183000000
H    -3.521000000     0.847000000     2.941000000
O     3.647000000    -2.981000000    -1.703000000
H     3.374000000    -3.572000000    -2.405000000
H     3.776000000    -2.137000000    -2.136000000
O    -3.342000000    -1.834000000     6.638000000
H    -3.013000000    -0.938000000     6.709000000
H    -3.593000000    -1.925000000     5.719000000
O     5.176000000     2.397000000    -3.805000000
H     6.122000000     2.252000000    -3.810000000
H     4.950000000     2.537000000    -4.725000000
O    -4.524000000     1.152000000     6.628000000
H    -4.084000000     1.738000000     6.013000000
H    -4.923000000     1.736000000     7.273000000
O    -1.979000000     0.969000000    -2.144000000
H    -1.545000000     0.622000000    -1.365000000
H    -2.460000000     1.735000000    -1.829000000
O     0.485000000    -2.730000000    -4.534000000
H     0.374000000    -2.589000000    -5.474000000
H     1.130000000    -2.074000000    -4.268000000
O     2.065000000     5.727000000     0.006000000
H     2.188000000     6.669000000    -0.108000000
H     2.878000000     5.426000000     0.413000000
O     1.622000000    -2.406000000     3.061000000
H     0.982000000    -3.113000000     2.989000000
H     2.468000000    -2.852000000     3.103000000
O     1.604000000     6.328000000    -3.548000000
H     1.830000000     6.965000000    -2.870000000
H     2.408000000     5.828000000    -3.685000000
O     3.885000000     3.242000000    -1.398000000
H     4.266000000     4.064000000    -1.089000000
H     4.518000000     2.907000000    -2.032000000
O    -5.904000000    -3.163000000     5.737000000
H    -6.387000000    -2.379000000     5.998000000
H    -5.182000000    -2.833000000     5.202000000
O    -3.535000000    -3.383000000    -0.699000000
H    -3.140000000    -4.154000000    -1.106000000
H    -3.033000000    -3.252000000     0.106000000
O    -3.655000000     3.073000000    -1.143000000
H    -2.788000000     3.479000000    -1.161000000
H    -4.226000000     3.745000000    -0.771000000
O     3.922000000     5.131000000    -3.666000000
H     4.526000000     5.357000000    -4.373000000
H     4.152000000     4.232000000    -3.432000000
O    -4.223000000     0.595000000     0.032000000
H    -4.087000000     1.286000000    -0.617000000
H    -4.253000000     1.057000000     0.870000000
O     2.139000000     4.922000000     4.247000000
H     1.571000000     4.162000000     4.117000000
H     3.003000000     4.548000000     4.422000000
O    -4.460000000    -3.845000000     2.772000000
H    -3.740000000    -3.585000000     2.197000000
H    -4.575000000    -3.102000000     3.364000000
O    -5.586000000    -5.975000000     1.677000000
H    -5.028000000    -5.250000000     1.958000000
H    -4.979000000    -6.701000000     1.531000000
O     1.364000000     3.730000000    -2.126000000
H     2.063000000     3.425000000    -1.549000000
H     1.603000000     4.634000000    -2.335000000
O     3.066000000    -4.381000000    -4.199000000
H     3.519000000    -4.520000000    -5.030000000
H     2.137000000    -4.396000000    -4.428000000
O    -1.227000000     4.622000000    -1.174000000
H    -0.887000000     4.682000000    -0.281000000
H    -0.509000000     4.240000000    -1.679000000
O    -0.662000000     0.063000000    -6.693000000
H    -0.558000000    -0.887000000    -6.748000000
H    -0.982000000     0.218000000    -5.805000000
O    -5.579000000    -1.740000000     0.263000000
H    -4.825000000    -2.191000000    -0.115000000
H    -5.313000000    -0.821000000     0.304000000
O     5.237000000     5.244000000     0.376000000
H     5.922000000     4.586000000     0.502000000
H     5.688000000     5.982000000    -0.034000000
O    -0.058000000    -0.493000000     4.036000000
H    -0.910000000    -0.664000000     3.636000000
H     0.553000000    -1.037000000     3.540000000
O    -0.025000000     2.177000000    -4.008000000
H     0.564000000     2.539000000    -3.346000000
H    -0.612000000     1.601000000    -3.519000000
O     4.185000000     2.116000000     1.211000000
H     3.657000000     1.343000000     1.409000000
H     3.739000000     2.528000000     0.471000000
O    -3.589000000    -3.389000000    -3.642000000
H    -4.526000000    -3.582000000    -3.684000000
H    -3.384000000    -3.399000000    -2.708000000
O    -1.218000000     4.401000000     4.017000000
H    -0.874000000     4.385000000     3.124000000
H    -1.077000000     3.512000000     4.343000000
O    -1.755000000     3.954000000    -5.581000000
H    -0.959000000     3.566000000    -5.217000000
H    -2.343000000     3.212000000    -5.718000000
O     1.798000000     1.700000000    -7.032000000
H     1.065000000     2.147000000    -7.455000000
H     1.600000000     1.749000000    -6.096000000
O     0.851000000    -1.172000000     6.570000000
H     1.796000000    -1.092000000     6.441000000
H     0.488000000    -1.182000000     5.685000000
O    -2.176000000    -0.531000000    -4.453000000
H    -2.561000000    -1.393000000    -4.290000000
H    -2.009000000    -0.174000000    -3.581000000
