158
-3010.60359
C     0.661000000    -0.566000000     1.162000000
H     1.277000000    -0.872000000     2.003000000
C     1.329000000     0.170000000     0.167000000
H     2.404000000     0.292000000     0.268000000
C     0.582000000     0.653000000    -0.895000000
H     1.016000000     1.286000000    -1.620000000
C    -0.823000000     0.395000000    -0.966000000
H    -1.328000000     0.916000000    -1.776000000
C    -1.458000000    -0.412000000     0.000000000
H    -2.522000000    -0.607000000    -0.102000000
C    -0.724000000    -0.905000000     1.070000000
C    -1.349000000    -1.750000000     2.117000000
O    -2.504000000    -2.213000000     2.077000000
O    -0.828000000    -2.003000000     3.217000000
O    -1.219000000    -0.288000000    -4.637000000
H    -1.053000000     0.652000000    -4.708000000
H    -1.957000000    -0.356000000    -4.032000000
O     4.773000000     5.297000000    -1.373000000
H     4.956000000     6.228000000    -1.505000000
H     5.350000000     5.040000000    -0.654000000
O    -3.910000000     1.796000000    -0.879000000
H    -3.215000000     2.289000000    -0.442000000
H    -4.527000000     2.465000000    -1.176000000
O     6.236000000     3.436000000    -3.422000000
H     5.849000000     2.631000000    -3.077000000
H     5.834000000     4.135000000    -2.907000000
O    -0.395000000     3.825000000    -2.093000000
H    -0.481000000     4.663000000    -2.548000000
H     0.547000000     3.722000000    -1.958000000
O    -2.269000000    -4.810000000     5.544000000
H    -2.394000000    -5.146000000     6.432000000
H    -2.906000000    -4.100000000     5.464000000
O     3.133000000     1.205000000     4.011000000
H     2.949000000     0.292000000     4.235000000
H     2.289000000     1.648000000     4.100000000
O     3.781000000    -1.862000000     1.971000000
H     4.552000000    -1.705000000     2.515000000
H     3.850000000    -2.781000000     1.715000000
O    -4.002000000     3.530000000    -4.232000000
H    -4.342000000     2.637000000    -4.162000000
H    -3.250000000     3.454000000    -4.819000000
O    -2.511000000    -3.085000000    -0.483000000
H    -2.390000000    -3.066000000     0.466000000
H    -3.269000000    -2.522000000    -0.639000000
O    -1.097000000    -3.510000000    -4.000000000
H    -0.669000000    -2.945000000    -3.358000000
H    -1.996000000    -3.184000000    -4.045000000
O    -0.208000000    -2.892000000     5.437000000
H    -0.853000000    -3.439000000     5.887000000
H    -0.604000000    -2.707000000     4.585000000
O    -3.319000000    -2.419000000     4.707000000
H    -2.731000000    -2.188000000     3.987000000
H    -4.054000000    -2.861000000     4.283000000
O     4.941000000    -0.248000000    -0.056000000
H     4.505000000    -0.724000000     0.651000000
H     4.473000000    -0.514000000    -0.848000000
O    -5.771000000     0.109000000     0.465000000
H    -5.062000000     0.458000000    -0.075000000
H    -6.392000000     0.832000000     0.543000000
O     2.810000000     4.049000000     0.506000000
H     3.264000000     4.333000000    -0.287000000
H     3.308000000     3.289000000     0.808000000
O     0.586000000    -4.255000000     2.712000000
H    -0.301000000    -3.933000000     2.873000000
H     1.155000000    -3.608000000     3.129000000
O     5.208000000     0.400000000    -3.291000000
H     4.871000000    -0.298000000    -2.730000000
H     4.653000000     0.371000000    -4.070000000
O    -0.281000000     2.390000000     1.514000000
H    -0.974000000     2.874000000     1.065000000
H    -0.077000000     1.663000000     0.926000000
O     1.999000000    -4.061000000     6.495000000
H     2.519000000    -4.150000000     5.696000000
H     1.284000000    -3.474000000     6.252000000
O    -3.495000000    -0.097000000    -2.788000000
H    -4.214000000    -0.723000000    -2.866000000
H    -3.787000000     0.522000000    -2.119000000
O    -5.122000000     0.549000000     3.224000000
H    -5.477000000     0.286000000     2.374000000
H    -4.509000000     1.254000000     3.020000000
O    -3.663000000     2.674000000     2.713000000
H    -2.729000000     2.568000000     2.532000000
H    -3.832000000     3.604000000     2.564000000
O    -2.230000000     3.899000000     0.275000000
H    -2.857000000     4.621000000     0.235000000
H    -1.590000000     4.098000000    -0.408000000
O     1.362000000     3.778000000     2.980000000
H     0.765000000     3.179000000     2.532000000
H     2.027000000     3.989000000     2.325000000
O     0.748000000    -2.023000000    -2.228000000
H     0.407000000    -1.646000000    -1.417000000
H     0.382000000    -1.473000000    -2.921000000
O     1.882000000     1.203000000    -6.509000000
H     1.259000000     1.769000000    -6.965000000
H     1.447000000     0.982000000    -5.685000000
O    -5.027000000    -6.105000000     3.111000000
H    -4.568000000    -5.293000000     2.895000000
H    -5.194000000    -6.519000000     2.265000000
O    -1.429000000    -0.587000000     7.716000000
H    -1.348000000    -1.339000000     7.129000000
H    -0.707000000    -0.010000000     7.468000000
O     1.028000000    -6.888000000     3.232000000
H     1.090000000    -6.020000000     2.833000000
H     1.878000000    -7.292000000     3.060000000
O    -1.239000000    -5.268000000    -1.509000000
H    -1.735000000    -5.518000000    -2.289000000
H    -1.596000000    -4.415000000    -1.263000000
O    -4.718000000    -3.611000000     2.067000000
H    -5.117000000    -3.305000000     1.252000000
H    -3.827000000    -3.264000000     2.043000000
O     1.288000000     6.269000000     0.751000000
H     0.520000000     6.448000000     1.294000000
H     1.505000000     5.355000000     0.936000000
O     3.879000000    -1.788000000    -2.193000000
H     4.354000000    -2.421000000    -2.733000000
H     2.969000000    -2.083000000    -2.223000000
O     2.097000000    -1.584000000     4.520000000
H     2.639000000    -2.295000000     4.178000000
H     1.229000000    -1.974000000     4.624000000
O    -3.387000000     5.153000000    -2.021000000
H    -3.587000000     4.626000000    -2.794000000
H    -4.099000000     4.963000000    -1.411000000
O    -4.926000000    -5.418000000    -0.453000000
H    -5.062000000    -4.471000000    -0.481000000
H    -5.808000000    -5.788000000    -0.494000000
O     1.201000000    -5.287000000    -0.257000000
H     1.003000000    -4.742000000     0.504000000
H     0.526000000    -5.058000000    -0.897000000
O     0.165000000     1.273000000     6.686000000
H     0.028000000     1.099000000     5.755000000
H    -0.121000000     2.179000000     6.805000000
O     4.184000000    -0.187000000    -5.860000000
H     4.907000000    -0.101000000    -6.481000000
H     3.494000000     0.373000000    -6.218000000
O     4.386000000     2.039000000     1.820000000
H     3.922000000     1.887000000     2.644000000
H     4.437000000     1.176000000     1.411000000
O     0.368000000     5.732000000    -3.842000000
H     1.007000000     5.081000000    -4.134000000
H    -0.355000000     5.654000000    -4.464000000
O    -5.374000000    -2.520000000    -0.445000000
H    -5.592000000    -2.339000000    -1.359000000
H    -5.386000000    -1.662000000    -0.021000000
O    -0.230000000     0.441000000     4.102000000
H    -0.079000000     0.833000000     3.241000000
H    -0.343000000    -0.492000000     3.924000000
O     1.818000000    -1.932000000    -5.422000000
H     2.596000000    -1.374000000    -5.398000000
H     2.146000000    -2.809000000    -5.222000000
O    -0.989000000     2.364000000    -4.306000000
H    -0.915000000     2.580000000    -3.376000000
H    -0.957000000     3.211000000    -4.751000000
O     6.915000000     1.253000000    -1.341000000
H     6.285000000     0.680000000    -0.903000000
H     6.818000000     1.049000000    -2.271000000
O     2.243000000     4.012000000    -3.921000000
H     2.983000000     4.332000000    -3.404000000
H     2.643000000     3.469000000    -4.601000000
