158
-3038.12061
C    -0.748000000    -0.437000000     1.164000000
H    -1.238000000    -0.721000000     2.092000000
C    -0.478000000     0.888000000     0.883000000
H    -0.736000000     1.627000000     1.637000000
C     0.292000000     1.218000000    -0.258000000
H     0.710000000     2.296000000    -0.344000000
C     0.611000000     0.148000000    -1.138000000
H     1.232000000     0.363000000    -2.003000000
C     0.214000000    -1.147000000    -0.881000000
H     0.579000000    -1.913000000    -1.560000000
C    -0.490000000    -1.481000000     0.323000000
C    -0.959000000    -2.890000000     0.654000000
O    -1.901000000    -3.086000000     1.432000000
O    -0.422000000    -3.784000000     0.050000000
O     7.009000000     1.190000000     0.237000000
H     6.624000000     0.834000000     1.038000000
H     6.309000000     1.713000000    -0.154000000
O     3.400000000    -3.108000000    -1.030000000
H     3.923000000    -3.713000000    -0.504000000
H     3.401000000    -2.292000000    -0.528000000
O    -3.257000000     0.547000000     2.979000000
H    -2.653000000     0.320000000     3.685000000
H    -2.905000000     1.359000000     2.614000000
O     0.942000000    -7.140000000     3.155000000
H     0.075000000    -6.743000000     3.075000000
H     1.454000000    -6.742000000     2.452000000
O     1.506000000    -1.798000000    -4.307000000
H     0.622000000    -1.489000000    -4.106000000
H     1.825000000    -1.191000000    -4.975000000
O     1.440000000     0.542000000     3.517000000
H     0.853000000     1.245000000     3.797000000
H     1.821000000     0.861000000     2.699000000
O    -1.544000000    -5.643000000     2.203000000
H    -2.182000000    -6.063000000     1.626000000
H    -1.484000000    -4.744000000     1.880000000
O     3.548000000     3.902000000     3.636000000
H     3.284000000     4.756000000     3.980000000
H     4.505000000     3.931000000     3.634000000
O     1.200000000    -4.104000000     2.962000000
H     1.961000000    -3.596000000     2.680000000
H     0.967000000    -4.631000000     2.197000000
O    -1.544000000    -0.445000000     4.981000000
H    -1.246000000    -1.257000000     4.570000000
H    -1.624000000    -0.662000000     5.910000000
O    -1.747000000    -4.784000000     6.183000000
H    -2.451000000    -5.349000000     5.864000000
H    -1.483000000    -4.274000000     5.417000000
O    -1.125000000    -2.931000000     3.959000000
H    -1.534000000    -3.077000000     3.106000000
H    -0.292000000    -3.400000000     3.909000000
O     2.400000000    -6.727000000    -2.777000000
H     2.141000000    -6.925000000    -3.677000000
H     2.150000000    -5.811000000    -2.652000000
O     1.613000000    -4.131000000    -2.798000000
H     2.073000000    -3.788000000    -2.032000000
H     1.772000000    -3.481000000    -3.483000000
O     0.424000000    -8.241000000    -0.247000000
H     0.774000000    -7.554000000     0.320000000
H    -0.336000000    -8.579000000     0.228000000
O    -1.314000000     7.345000000    -4.255000000
H    -1.155000000     6.437000000    -3.998000000
H    -0.470000000     7.779000000    -4.137000000
O    -0.589000000    -5.666000000    -3.227000000
H    -0.909000000    -6.341000000    -2.628000000
H     0.138000000    -5.255000000    -2.758000000
O     4.190000000    -0.609000000    -2.874000000
H     3.831000000    -0.166000000    -2.106000000
H     3.630000000    -1.376000000    -2.992000000
O     1.417000000     5.305000000    -0.096000000
H     1.870000000     6.000000000     0.382000000
H     0.526000000     5.634000000    -0.210000000
O    -0.491000000     2.049000000     4.607000000
H    -0.140000000     2.285000000     5.466000000
H    -0.776000000     1.141000000     4.706000000
O    -0.631000000     1.633000000    -5.542000000
H    -0.892000000     0.763000000    -5.846000000
H    -0.042000000     1.463000000    -4.807000000
O     1.958000000     3.960000000    -3.454000000
H     1.967000000     4.831000000    -3.058000000
H     2.869000000     3.669000000    -3.415000000
O    -1.152000000    -1.200000000    -4.090000000
H    -1.653000000    -1.755000000    -3.494000000
H    -1.810000000    -0.652000000    -4.517000000
O     1.321000000    -5.726000000     0.754000000
H     2.033000000    -5.597000000     0.127000000
H     0.672000000    -5.063000000     0.520000000
O     4.361000000     1.658000000    -5.311000000
H     4.258000000     0.894000000    -4.743000000
H     3.625000000     1.605000000    -5.920000000
O    -0.245000000     4.090000000     2.983000000
H     0.503000000     3.631000000     2.600000000
H    -0.523000000     3.531000000     3.708000000
O     2.419000000     0.000000000    -6.391000000
H     2.281000000    -0.375000000    -7.261000000
H     1.946000000     0.831000000    -6.410000000
O     3.262000000     0.140000000     0.066000000
H     2.382000000     0.356000000    -0.243000000
H     3.738000000     0.970000000     0.035000000
O    -3.052000000    -6.932000000     0.183000000
H    -3.884000000    -6.857000000     0.651000000
H    -3.015000000    -7.848000000    -0.094000000
O     2.002000000     2.896000000     1.801000000
H     2.260000000     3.377000000     1.015000000
H     2.477000000     3.326000000     2.512000000
O    -0.159000000     6.653000000     4.248000000
H    -0.899000000     6.625000000     4.856000000
H    -0.257000000     5.864000000     3.716000000
O    -6.559000000    -3.182000000    -0.156000000
H    -6.998000000    -2.487000000    -0.646000000
H    -5.696000000    -2.821000000     0.050000000
O    -0.990000000     7.722000000    -0.851000000
H    -0.701000000     7.332000000    -1.676000000
H    -1.376000000     6.995000000    -0.364000000
O    -4.996000000    -3.422000000    -2.703000000
H    -5.007000000    -3.666000000    -3.628000000
H    -4.308000000    -3.967000000    -2.320000000
O    -3.882000000     3.355000000     4.321000000
H    -3.240000000     3.234000000     5.020000000
H    -4.555000000     2.697000000     4.497000000
O    -2.352000000     0.898000000    -2.157000000
H    -1.801000000     0.935000000    -1.376000000
H    -2.831000000     0.074000000    -2.075000000
O     4.864000000     3.900000000    -3.715000000
H     4.571000000     3.263000000    -4.367000000
H     5.691000000     4.234000000    -4.062000000
O     0.416000000    -5.002000000    -5.925000000
H     0.895000000    -5.811000000    -5.745000000
H     0.178000000    -4.668000000    -5.060000000
O    -4.258000000    -1.740000000     1.010000000
H    -3.928000000    -1.020000000     1.548000000
H    -3.544000000    -2.377000000     0.998000000
O    -3.379000000    -6.308000000     5.045000000
H    -3.264000000    -6.302000000     4.095000000
H    -4.298000000    -6.545000000     5.174000000
O    -2.849000000    -4.559000000    -1.462000000
H    -2.078000000    -4.133000000    -1.087000000
H    -2.905000000    -5.398000000    -1.005000000
O    -2.949000000     3.990000000    -1.240000000
H    -3.543000000     4.736000000    -1.322000000
H    -3.527000000     3.234000000    -1.135000000
O     4.547000000     2.610000000    -0.448000000
H     4.451000000     3.147000000    -1.235000000
H     4.773000000     3.234000000     0.242000000
O    -3.589000000     1.472000000    -4.602000000
H    -3.547000000     2.426000000    -4.660000000
H    -3.092000000     1.258000000    -3.812000000
O    -1.662000000     5.357000000     0.982000000
H    -1.340000000     4.894000000     1.755000000
H    -1.923000000     4.663000000     0.377000000
O    -3.851000000    -1.286000000    -1.777000000
H    -4.297000000    -2.093000000    -2.037000000
H    -3.590000000    -1.439000000    -0.869000000
O    -0.901000000     4.885000000    -3.316000000
H    -1.528000000     4.344000000    -2.835000000
H    -0.049000000     4.496000000    -3.119000000
O     2.800000000    -1.903000000     2.510000000
H     3.156000000    -1.545000000     1.696000000
H     2.208000000    -1.223000000     2.832000000
