158
-3044.05631
C    -0.683000000    -0.298000000     1.309000000
H    -0.970000000    -0.551000000     2.327000000
C     0.291000000     0.712000000     1.136000000
H     0.520000000     1.438000000     1.913000000
C     0.856000000     0.955000000    -0.148000000
H     1.468000000     1.793000000    -0.418000000
C     0.388000000     0.150000000    -1.187000000
H     0.655000000     0.443000000    -2.199000000
C    -0.594000000    -0.795000000    -1.000000000
H    -1.019000000    -1.329000000    -1.846000000
C    -1.235000000    -1.046000000     0.246000000
C    -2.203000000    -2.179000000     0.403000000
O    -2.408000000    -2.621000000     1.505000000
O    -2.802000000    -2.637000000    -0.546000000
O     3.381000000    -1.268000000    -2.450000000
H     2.599000000    -1.788000000    -2.637000000
H     4.099000000    -1.901000000    -2.462000000
O     4.899000000     1.500000000    -0.587000000
H     4.258000000     2.205000000    -0.679000000
H     4.391000000     0.698000000    -0.708000000
O     2.729000000    -4.238000000    -1.092000000
H     2.659000000    -5.190000000    -1.014000000
H     2.136000000    -4.012000000    -1.808000000
O    -3.755000000    -1.283000000     5.620000000
H    -2.909000000    -1.544000000     5.255000000
H    -3.580000000    -0.450000000     6.057000000
O     0.719000000    -0.803000000     4.390000000
H     0.835000000    -0.316000000     5.206000000
H     1.598000000    -1.103000000     4.162000000
O    -4.845000000    -3.024000000     2.609000000
H    -5.366000000    -2.290000000     2.283000000
H    -3.966000000    -2.865000000     2.266000000
O    -3.990000000    -5.116000000     0.782000000
H    -3.511000000    -4.458000000     0.279000000
H    -4.562000000    -4.609000000     1.358000000
O     1.729000000    -3.815000000     1.520000000
H     2.645000000    -3.673000000     1.759000000
H     1.685000000    -3.581000000     0.593000000
O    -1.679000000    -1.931000000     4.160000000
H    -1.918000000    -2.214000000     3.277000000
H    -0.879000000    -1.421000000     4.040000000
O     0.808000000    -6.415000000    -2.988000000
H     1.438000000    -6.651000000    -2.307000000
H     0.369000000    -5.634000000    -2.649000000
O     0.482000000    -0.882000000    -4.909000000
H     0.939000000    -0.141000000    -4.511000000
H     0.704000000    -0.829000000    -5.839000000
O     5.652000000     6.224000000     0.652000000
H     4.700000000     6.299000000     0.598000000
H     5.815000000     5.865000000     1.525000000
O     4.447000000    -2.779000000     1.702000000
H     4.095000000    -2.056000000     1.182000000
H     4.969000000    -3.288000000     1.082000000
O    -1.228000000    -4.352000000    -1.994000000
H    -1.812000000    -3.826000000    -1.448000000
H    -1.743000000    -5.128000000    -2.216000000
O     3.001000000    -1.054000000     0.296000000
H     2.166000000    -0.591000000     0.371000000
H     3.138000000    -1.148000000    -0.647000000
O    -6.224000000    -0.815000000     1.806000000
H    -6.658000000    -0.034000000     2.150000000
H    -5.971000000    -0.575000000     0.915000000
O    -4.691000000    -0.205000000    -3.102000000
H    -3.918000000    -0.462000000    -3.605000000
H    -5.428000000    -0.389000000    -3.685000000
O    -1.261000000     2.181000000     5.397000000
H    -0.580000000     1.549000000     5.625000000
H    -1.978000000     1.989000000     6.000000000
O    -5.104000000    -0.120000000    -0.475000000
H    -4.390000000     0.492000000    -0.300000000
H    -5.106000000    -0.220000000    -1.427000000
O     3.298000000     3.716000000    -1.019000000
H     2.610000000     3.943000000    -1.645000000
H     3.545000000     4.551000000    -0.623000000
O     0.984000000    -3.214000000    -3.126000000
H     0.132000000    -3.641000000    -3.042000000
H     0.848000000    -2.535000000    -3.786000000
O    -2.546000000    -0.894000000    -4.837000000
H    -2.873000000    -1.762000000    -5.075000000
H    -1.607000000    -1.022000000    -4.700000000
O     0.194000000     5.270000000    -0.168000000
H     0.280000000     5.090000000     0.768000000
H    -0.741000000     5.431000000    -0.295000000
O    -0.931000000    -5.125000000     2.016000000
H    -0.055000000    -4.875000000     1.723000000
H    -1.515000000    -4.504000000     1.581000000
O     2.242000000     3.033000000     5.816000000
H     1.912000000     3.865000000     6.156000000
H     1.984000000     2.387000000     6.474000000
O    -1.054000000     3.031000000    -4.557000000
H    -0.446000000     2.612000000    -5.166000000
H    -1.170000000     3.915000000    -4.904000000
O     2.122000000     0.877000000    -4.093000000
H     2.846000000     0.622000000    -3.521000000
H     2.430000000     1.672000000    -4.528000000
O     1.279000000     4.670000000    -2.640000000
H     0.734000000     4.908000000    -1.890000000
H     0.665000000     4.601000000    -3.371000000
O    -5.472000000    -5.719000000    -2.080000000
H    -6.228000000    -5.697000000    -1.493000000
H    -5.238000000    -4.799000000    -2.203000000
O     2.270000000     3.270000000     2.878000000
H     2.414000000     3.112000000     3.811000000
H     3.150000000     3.376000000     2.515000000
O     2.968000000     5.798000000     1.042000000
H     2.709000000     6.406000000     1.734000000
H     2.191000000     5.719000000     0.489000000
O     3.381000000    -0.677000000     3.208000000
H     3.036000000    -0.390000000     2.363000000
H     4.157000000    -1.192000000     2.988000000
O    -4.670000000    -3.174000000    -2.260000000
H    -4.988000000    -2.318000000    -2.546000000
H    -3.918000000    -2.976000000    -1.702000000
O    -4.179000000    -4.495000000     5.353000000
H    -4.177000000    -4.116000000     4.475000000
H    -4.060000000    -5.434000000     5.209000000
O     0.466000000     5.455000000     2.748000000
H     1.074000000     4.724000000     2.861000000
H    -0.302000000     5.209000000     3.263000000
O    -2.639000000     1.642000000     0.052000000
H    -2.451000000     1.938000000     0.943000000
H    -1.868000000     1.134000000    -0.199000000
O     1.878000000    -3.644000000     4.653000000
H     1.067000000    -3.538000000     5.150000000
H     1.606000000    -3.584000000     3.737000000
O     6.306000000     1.142000000     1.934000000
H     6.267000000     2.020000000     2.313000000
H     5.834000000     1.218000000     1.105000000
O     3.448000000     2.936000000    -5.225000000
H     4.098000000     3.151000000    -4.556000000
H     2.850000000     3.683000000    -5.225000000
O    -3.148000000    -6.649000000    -1.319000000
H    -3.851000000    -6.369000000    -1.905000000
H    -3.423000000    -6.346000000    -0.453000000
O    -3.811000000     0.264000000     3.212000000
H    -3.530000000    -0.257000000     3.964000000
H    -4.211000000    -0.370000000     2.617000000
O    -0.418000000    -3.333000000     6.098000000
H    -0.956000000    -4.117000000     5.986000000
H    -0.708000000    -2.742000000     5.404000000
O     3.074000000     6.654000000    -3.748000000
H     2.653000000     6.027000000    -3.160000000
H     3.157000000     6.184000000    -4.578000000
O    -2.576000000     3.530000000    -2.286000000
H    -2.210000000     3.013000000    -1.569000000
H    -2.130000000     3.206000000    -3.068000000
O     5.935000000     1.373000000    -3.142000000
H     5.921000000     2.210000000    -3.606000000
H     5.426000000     1.531000000    -2.347000000
O    -2.872000000     2.652000000     2.703000000
H    -3.141000000     1.785000000     3.008000000
H    -2.462000000     3.058000000     3.466000000
O     4.134000000     0.513000000     5.600000000
H     3.712000000     0.458000000     4.743000000
H     3.780000000    -0.230000000     6.089000000
O    -1.620000000     4.622000000     4.312000000
H    -0.996000000     3.920000000     4.498000000
H    -1.914000000     4.915000000     5.175000000
