158
-3015.36550
C    -0.036000000    -0.937000000     1.148000000
H    -0.273000000    -1.536000000     2.024000000
C     0.309000000     0.404000000     1.243000000
H     0.422000000     0.836000000     2.234000000
C     0.235000000     1.179000000     0.126000000
H     0.398000000     2.211000000     0.356000000
C     0.108000000     0.620000000    -1.144000000
H     0.007000000     1.314000000    -1.975000000
C    -0.184000000    -0.729000000    -1.249000000
H    -0.582000000    -1.072000000    -2.200000000
C    -0.244000000    -1.576000000    -0.107000000
C    -0.510000000    -3.062000000    -0.197000000
O    -0.888000000    -3.682000000     0.770000000
O    -0.680000000    -3.556000000    -1.303000000
O     2.999000000     6.968000000    -1.903000000
H     3.778000000     7.463000000    -2.154000000
H     3.192000000     6.649000000    -1.021000000
O     2.747000000    -0.828000000    -0.436000000
H     2.631000000    -1.375000000     0.341000000
H     2.187000000    -0.068000000    -0.280000000
O     0.687000000    -6.144000000     0.101000000
H     0.132000000    -5.970000000    -0.659000000
H     0.677000000    -5.326000000     0.597000000
O     2.964000000    -2.088000000     2.054000000
H     3.268000000    -2.996000000     2.072000000
H     2.287000000    -2.049000000     2.729000000
O    -4.429000000    -2.502000000     3.447000000
H    -3.790000000    -2.697000000     4.132000000
H    -4.438000000    -1.547000000     3.392000000
O    -1.988000000    -5.976000000     1.475000000
H    -1.701000000    -5.081000000     1.292000000
H    -1.612000000    -6.497000000     0.766000000
O     3.960000000     5.511000000     3.932000000
H     3.439000000     6.206000000     3.529000000
H     4.170000000     4.920000000     3.210000000
O     5.804000000     3.161000000     1.649000000
H     6.098000000     2.328000000     2.018000000
H     4.849000000     3.099000000     1.647000000
O     0.418000000    -6.062000000    -4.253000000
H     1.020000000    -6.775000000    -4.039000000
H     0.033000000    -5.814000000    -3.412000000
O     3.435000000     0.319000000     3.400000000
H     3.300000000    -0.507000000     2.936000000
H     4.385000000     0.383000000     3.503000000
O    -1.027000000    -3.697000000     3.669000000
H    -1.750000000    -4.268000000     3.928000000
H    -1.108000000    -3.625000000     2.718000000
O    -2.820000000    -2.537000000    -2.288000000
H    -1.921000000    -2.814000000    -2.113000000
H    -3.337000000    -2.949000000    -1.596000000
O    -0.440000000     4.407000000    -5.863000000
H    -0.507000000     3.553000000    -5.435000000
H    -1.334000000     4.749000000    -5.856000000
O    -1.318000000    -6.168000000    -2.017000000
H    -1.242000000    -5.219000000    -1.913000000
H    -2.257000000    -6.341000000    -1.956000000
O     3.419000000    -4.530000000    -0.551000000
H     3.963000000    -5.317000000    -0.519000000
H     3.379000000    -4.230000000     0.357000000
O     0.099000000     5.268000000    -3.065000000
H    -0.625000000     4.962000000    -2.518000000
H     0.876000000     4.856000000    -2.686000000
O     1.064000000    -0.835000000    -5.006000000
H     1.497000000    -0.255000000    -5.632000000
H     1.663000000    -0.872000000    -4.260000000
O     2.111000000     1.938000000    -5.411000000
H     2.802000000     2.238000000    -4.820000000
H     1.297000000     2.127000000    -4.944000000
O     1.821000000    -3.587000000    -2.477000000
H     0.907000000    -3.506000000    -2.204000000
H     2.308000000    -3.685000000    -1.659000000
O    -0.029000000     5.975000000     1.212000000
H    -0.330000000     6.300000000     2.060000000
H     0.044000000     5.028000000     1.331000000
O    -3.413000000     3.177000000    -2.301000000
H    -3.772000000     2.824000000    -3.115000000
H    -3.405000000     4.125000000    -2.433000000
O     4.076000000     2.554000000    -3.576000000
H     4.752000000     2.918000000    -4.148000000
H     3.853000000     3.271000000    -2.983000000
O     2.435000000    -6.695000000     2.038000000
H     1.761000000    -6.672000000     1.358000000
H     2.756000000    -7.597000000     2.025000000
O     1.200000000     0.621000000     5.190000000
H     1.836000000     0.371000000     4.520000000
H     1.455000000     1.509000000     5.443000000
O     2.977000000    -1.267000000    -2.892000000
H     3.018000000    -2.222000000    -2.953000000
H     2.734000000    -1.095000000    -1.982000000
O     1.863000000     3.997000000    -1.472000000
H     1.301000000     3.630000000    -0.789000000
H     2.538000000     4.478000000    -0.994000000
O    -1.589000000     0.229000000     5.258000000
H    -1.930000000     0.717000000     6.008000000
H    -0.675000000     0.503000000     5.189000000
O    -3.346000000    -3.862000000    -4.614000000
H    -2.946000000    -3.250000000    -3.997000000
H    -3.199000000    -3.466000000    -5.473000000
O    -3.366000000    -2.884000000     0.767000000
H    -2.440000000    -3.127000000     0.743000000
H    -3.591000000    -2.893000000     1.698000000
O    -1.660000000     3.301000000     4.481000000
H    -1.938000000     3.589000000     5.350000000
H    -2.423000000     2.849000000     4.123000000
O     1.433000000    -2.389000000     4.129000000
H     0.661000000    -1.824000000     4.104000000
H     1.084000000    -3.265000000     4.296000000
O     3.532000000     5.187000000     0.105000000
H     4.453000000     4.944000000     0.201000000
H     3.421000000     5.937000000     0.690000000
O    -3.264000000     2.262000000     2.203000000
H    -3.732000000     1.593000000     2.703000000
H    -2.762000000     1.769000000     1.553000000
O     0.153000000     7.608000000    -0.974000000
H     1.051000000     7.349000000    -1.182000000
H    -0.147000000     6.948000000    -0.349000000
O     3.247000000     3.078000000     2.350000000
H     3.364000000     2.362000000     2.975000000
H     2.334000000     3.343000000     2.458000000
O    -0.071000000    -3.908000000    -6.241000000
H    -0.065000000    -3.037000000    -5.843000000
H     0.263000000    -4.487000000    -5.556000000
O    -2.775000000     0.995000000    -0.335000000
H    -3.071000000     1.681000000    -0.933000000
H    -2.023000000     0.600000000    -0.777000000
O    -2.689000000     6.571000000    -0.370000000
H    -2.278000000     7.310000000     0.078000000
H    -3.005000000     6.007000000     0.336000000
O     0.823000000     3.621000000     3.221000000
H    -0.133000000     3.661000000     3.210000000
H     1.037000000     3.248000000     4.077000000
O    -1.833000000    -1.074000000    -5.469000000
H    -1.700000000    -1.035000000    -6.417000000
H    -0.971000000    -0.883000000    -5.099000000
O    -2.900000000     0.008000000    -3.261000000
H    -2.663000000    -0.784000000    -2.779000000
H    -3.033000000    -0.290000000    -4.161000000
O    -0.467000000    -6.974000000     3.633000000
H    -0.907000000    -6.655000000     2.845000000
H     0.081000000    -6.241000000     3.914000000
O    -1.229000000     1.905000000    -4.925000000
H    -1.970000000     1.916000000    -5.531000000
H    -1.537000000     1.391000000    -4.179000000
O     2.827000000    -3.996000000    -5.297000000
H     2.318000000    -3.960000000    -4.487000000
H     2.466000000    -3.294000000    -5.837000000
O    -5.000000000    -0.530000000    -0.688000000
H    -5.179000000    -0.956000000     0.150000000
H    -4.192000000    -0.038000000    -0.539000000
O    -3.091000000     4.989000000     1.969000000
H    -2.985000000     4.055000000     2.147000000
H    -3.902000000     5.228000000     2.417000000
O    -3.989000000     0.312000000     3.892000000
H    -4.780000000     0.275000000     4.430000000
H    -3.270000000     0.336000000     4.524000000
O    -0.997000000     6.434000000     4.104000000
H    -0.816000000     5.529000000     4.358000000
H    -1.933000000     6.547000000     4.269000000
