158
-2989.05710
C    -0.380000000    -0.317000000     1.345000000
H    -0.596000000    -0.514000000     2.392000000
C     0.401000000     0.799000000     1.054000000
H     0.617000000     1.593000000     1.764000000
C     0.697000000     0.932000000    -0.307000000
H     1.251000000     1.761000000    -0.789000000
C     0.149000000     0.092000000    -1.253000000
H     0.429000000     0.205000000    -2.297000000
C    -0.646000000    -0.981000000    -0.925000000
H    -1.046000000    -1.606000000    -1.719000000
C    -0.910000000    -1.190000000     0.410000000
C    -1.690000000    -2.423000000     0.946000000
O    -2.102000000    -2.371000000     2.033000000
O    -1.821000000    -3.387000000     0.218000000
O     3.733000000     0.165000000     1.498000000
H     3.280000000     0.992000000     1.333000000
H     3.520000000    -0.381000000     0.741000000
O    -2.706000000    -6.759000000     2.895000000
H    -2.513000000    -7.586000000     3.337000000
H    -3.024000000    -7.017000000     2.030000000
O     2.339000000    -1.723000000     5.494000000
H     1.490000000    -1.394000000     5.788000000
H     2.840000000    -0.936000000     5.280000000
O    -4.350000000    -3.526000000     2.257000000
H    -4.771000000    -3.325000000     1.421000000
H    -3.474000000    -3.148000000     2.182000000
O    -0.455000000    -5.561000000     1.136000000
H    -0.834000000    -4.738000000     0.827000000
H    -0.780000000    -6.220000000     0.521000000
O     1.973000000    -2.100000000     1.553000000
H     1.579000000    -1.228000000     1.580000000
H     2.414000000    -2.137000000     0.703000000
O    -6.327000000    -5.544000000     2.237000000
H    -5.808000000    -4.823000000     2.594000000
H    -7.225000000    -5.211000000     2.230000000
O    -1.052000000    -3.744000000     5.786000000
H    -0.499000000    -3.409000000     5.081000000
H    -1.873000000    -3.980000000     5.355000000
O     0.143000000    -2.945000000     3.428000000
H     0.813000000    -2.504000000     2.905000000
H    -0.653000000    -2.883000000     2.900000000
O     1.621000000    -0.810000000    -4.529000000
H     2.396000000    -0.578000000    -4.017000000
H     1.391000000    -0.005000000    -4.993000000
O     6.492000000     4.301000000     0.503000000
H     5.555000000     4.495000000     0.538000000
H     6.749000000     4.195000000     1.419000000
O    -0.837000000    -4.714000000    -1.775000000
H    -1.145000000    -4.122000000    -1.089000000
H    -1.382000000    -4.507000000    -2.534000000
O     3.245000000    -1.598000000    -0.567000000
H     2.848000000    -1.034000000    -1.230000000
H     3.889000000    -2.118000000    -1.049000000
O    -2.053000000    -7.825000000     0.177000000
H    -2.477000000    -8.676000000     0.288000000
H    -2.625000000    -7.349000000    -0.425000000
O    -5.744000000    -1.513000000     0.404000000
H    -5.266000000    -0.847000000     0.898000000
H    -5.424000000    -1.421000000    -0.493000000
O    -3.395000000    -1.831000000    -3.761000000
H    -2.565000000    -1.589000000    -4.171000000
H    -3.996000000    -1.959000000    -4.495000000
O    -4.376000000    -0.298000000    -1.589000000
H    -3.631000000     0.179000000    -1.221000000
H    -4.000000000    -0.819000000    -2.298000000
O     0.619000000     1.422000000    -5.792000000
H     1.289000000     2.105000000    -5.817000000
H    -0.186000000     1.865000000    -6.061000000
O     3.221000000     3.002000000     1.165000000
H     2.977000000     3.769000000     0.647000000
H     3.050000000     3.260000000     2.071000000
O     1.450000000    -3.217000000    -2.859000000
H     0.651000000    -3.395000000    -2.362000000
H     1.267000000    -2.399000000    -3.321000000
O    -0.762000000    -1.950000000    -4.859000000
H    -0.645000000    -2.626000000    -5.527000000
H     0.080000000    -1.497000000    -4.826000000
O    -0.524000000     4.453000000     0.651000000
H    -0.710000000     4.037000000     1.493000000
H    -0.276000000     3.730000000     0.075000000
O     5.495000000     4.048000000    -2.719000000
H     6.295000000     3.630000000    -3.038000000
H     5.629000000     4.135000000    -1.776000000
O     2.275000000    -5.921000000     0.097000000
H     2.547000000    -6.495000000     0.813000000
H     1.514000000    -5.453000000     0.440000000
O     0.469000000     3.785000000    -2.073000000
H     0.380000000     4.057000000    -2.987000000
H     1.149000000     4.357000000    -1.718000000
O     3.786000000    -0.114000000    -3.068000000
H     4.573000000    -0.585000000    -3.344000000
H     3.913000000     0.777000000    -3.395000000
O     1.902000000     5.193000000    -0.260000000
H     1.003000000     5.257000000     0.062000000
H     2.375000000     5.880000000     0.211000000
O     2.177000000     2.867000000     4.578000000
H     1.827000000     2.498000000     5.390000000
H     1.641000000     3.644000000     4.419000000
O     3.812000000     5.910000000     1.528000000
H     3.562000000     6.817000000     1.703000000
H     4.289000000     5.637000000     2.312000000
O    -2.457000000     6.110000000     1.449000000
H    -1.948000000     5.299000000     1.443000000
H    -2.684000000     6.243000000     2.369000000
O     3.514000000     0.513000000     4.272000000
H     2.888000000     1.236000000     4.318000000
H     3.716000000     0.431000000     3.340000000
O    -5.546000000     0.062000000     2.765000000
H    -4.664000000     0.076000000     3.136000000
H    -5.670000000     0.941000000     2.409000000
O    -4.028000000    -3.781000000    -1.304000000
H    -3.826000000    -3.150000000    -1.995000000
H    -3.315000000    -3.681000000    -0.672000000
O    -3.366000000    -4.494000000     4.460000000
H    -3.894000000    -3.973000000     3.855000000
H    -2.954000000    -5.159000000     3.909000000
O    -0.766000000     3.582000000     3.190000000
H    -0.390000000     4.044000000     3.940000000
H    -1.173000000     2.802000000     3.568000000
O    -2.919000000     1.497000000     0.569000000
H    -2.785000000     1.733000000     1.487000000
H    -2.232000000     0.857000000     0.383000000
O     4.191000000     2.176000000    -4.440000000
H     4.614000000     2.805000000    -3.855000000
H     3.702000000     2.717000000    -5.061000000
O    -3.601000000    -6.256000000    -3.059000000
H    -3.900000000    -5.554000000    -2.482000000
H    -4.386000000    -6.777000000    -3.229000000
O    -3.472000000    -0.719000000     4.811000000
H    -3.592000000    -1.157000000     5.653000000
H    -3.116000000    -1.397000000     4.237000000
O     0.272000000    -6.370000000     3.560000000
H    -0.433000000    -6.946000000     3.854000000
H    -0.112000000    -5.871000000     2.838000000
O    -2.140000000     2.864000000    -2.467000000
H    -2.268000000     2.263000000    -3.202000000
H    -1.202000000     3.050000000    -2.471000000
O     5.621000000     1.435000000    -0.060000000
H     5.942000000     2.271000000     0.279000000
H     4.720000000     1.378000000     0.256000000
O     3.398000000    -3.535000000    -4.631000000
H     2.633000000    -3.159000000    -4.196000000
H     3.514000000    -4.389000000    -4.214000000
O    -2.878000000     1.509000000     3.330000000
H    -3.028000000     0.743000000     3.884000000
H    -3.293000000     2.231000000     3.803000000
O     2.319000000     3.462000000    -5.851000000
H     2.416000000     4.116000000    -6.543000000
H     2.002000000     3.957000000    -5.096000000
O     0.356000000     5.303000000    -4.334000000
H    -0.227000000     5.779000000    -3.743000000
H     0.315000000     5.791000000    -5.156000000
O     7.527000000     0.006000000    -1.154000000
H     6.893000000     0.693000000    -0.948000000
H     7.017000000    -0.660000000    -1.614000000
O    -0.750000000     2.272000000     5.662000000
H    -1.209000000     1.437000000     5.755000000
H    -0.273000000     2.376000000     6.485000000
