158
-3020.41310
C     1.162000000    -0.871000000     0.527000000
H     2.013000000    -1.505000000     0.760000000
C     1.253000000     0.139000000    -0.496000000
H     2.184000000     0.406000000    -0.990000000
C     0.068000000     0.815000000    -0.949000000
H     0.120000000     1.509000000    -1.766000000
C    -1.083000000     0.628000000    -0.278000000
H    -2.028000000     1.026000000    -0.638000000
C    -1.184000000    -0.305000000     0.746000000
H    -2.162000000    -0.567000000     1.141000000
C    -0.074000000    -1.047000000     1.210000000
C    -0.255000000    -2.131000000     2.226000000
O    -1.408000000    -2.401000000     2.542000000
O     0.663000000    -2.585000000     2.857000000
O     2.321000000    -1.153000000    -4.214000000
H     1.653000000    -0.475000000    -4.316000000
H     1.849000000    -1.902000000    -3.850000000
O    -4.591000000     1.528000000    -1.465000000
H    -5.334000000     1.472000000    -2.067000000
H    -3.879000000     1.884000000    -1.996000000
O    -4.726000000    -1.376000000    -3.391000000
H    -4.773000000    -1.822000000    -4.237000000
H    -5.582000000    -1.531000000    -2.991000000
O    -5.503000000     5.096000000     0.159000000
H    -5.416000000     5.768000000    -0.517000000
H    -4.728000000     4.544000000     0.050000000
O     3.243000000     3.669000000    -0.363000000
H     3.129000000     4.105000000    -1.208000000
H     3.825000000     2.933000000    -0.550000000
O     0.338000000    -5.522000000     6.342000000
H     0.166000000    -5.849000000     7.225000000
H    -0.518000000    -5.237000000     6.021000000
O     4.476000000     1.596000000     3.867000000
H     3.867000000     0.858000000     3.883000000
H     3.952000000     2.332000000     3.551000000
O    -2.705000000     2.528000000    -3.085000000
H    -2.913000000     2.586000000    -4.018000000
H    -1.756000000     2.640000000    -3.044000000
O    -0.054000000    -1.821000000    -2.613000000
H    -0.176000000    -1.243000000    -1.860000000
H    -0.777000000    -1.605000000    -3.201000000
O     1.003000000    -2.781000000     5.577000000
H     0.734000000    -3.694000000     5.679000000
H     0.840000000    -2.585000000     4.654000000
O    -1.731000000    -4.253000000     4.852000000
H    -1.575000000    -3.637000000     4.136000000
H    -2.660000000    -4.472000000     4.781000000
O     4.934000000     0.037000000     1.169000000
H     4.638000000     0.104000000     2.077000000
H     4.748000000    -0.869000000     0.923000000
O    -4.978000000    -0.201000000     0.707000000
H    -4.773000000     0.096000000    -0.179000000
H    -5.076000000     0.605000000     1.214000000
O     2.892000000    -0.546000000    -6.818000000
H     2.202000000     0.117000000    -6.852000000
H     2.762000000    -0.983000000    -5.976000000
O     4.965000000     1.439000000    -1.160000000
H     4.874000000     0.982000000    -0.324000000
H     4.878000000     0.751000000    -1.820000000
O     3.332000000    -3.539000000     2.767000000
H     2.466000000    -3.163000000     2.923000000
H     3.797000000    -3.421000000     3.595000000
O    -1.357000000    -5.531000000     1.264000000
H    -0.930000000    -4.720000000     1.540000000
H    -2.269000000    -5.426000000     1.535000000
O     4.810000000    -0.433000000    -2.980000000
H     5.564000000    -0.892000000    -3.351000000
H     4.087000000    -0.646000000    -3.569000000
O     0.414000000     2.063000000     1.729000000
H    -0.239000000     2.745000000     1.573000000
H     0.182000000     1.364000000     1.118000000
O     3.087000000    -3.521000000     7.101000000
H     3.541000000    -4.213000000     6.621000000
H     2.306000000    -3.339000000     6.579000000
O     0.084000000     0.427000000    -5.075000000
H    -0.503000000     0.466000000    -4.320000000
H     0.335000000     1.337000000    -5.231000000
O    -2.272000000    -0.282000000    -3.329000000
H    -3.084000000    -0.731000000    -3.097000000
H    -2.469000000     0.647000000    -3.207000000
O    -2.295000000    -0.177000000     4.144000000
H    -1.906000000    -0.858000000     3.594000000
H    -2.275000000     0.610000000     3.600000000
O    -2.024000000    -3.593000000     7.542000000
H    -2.473000000    -2.749000000     7.594000000
H    -1.657000000    -3.615000000     6.659000000
O    -2.595000000     2.658000000     3.298000000
H    -2.930000000     2.819000000     2.416000000
H    -3.273000000     3.004000000     3.878000000
O     4.301000000    -5.371000000    -1.046000000
H     4.837000000    -4.936000000    -0.384000000
H     3.440000000    -5.458000000    -0.637000000
O    -0.067000000     4.633000000    -0.092000000
H     0.248000000     5.305000000     0.512000000
H     0.715000000     4.126000000    -0.315000000
O     2.225000000     3.519000000     3.227000000
H     1.544000000     3.086000000     2.711000000
H     2.542000000     4.223000000     2.662000000
O     3.709000000    -2.404000000    -1.522000000
H     4.183000000    -2.900000000    -2.188000000
H     4.097000000    -1.529000000    -1.553000000
O    -4.704000000     0.645000000     4.951000000
H    -3.829000000     0.461000000     4.609000000
H    -5.137000000     1.132000000     4.249000000
O    -4.565000000    -4.203000000     4.837000000
H    -5.339000000    -4.416000000     5.360000000
H    -4.918000000    -3.891000000     4.004000000
O     0.228000000    -0.643000000     7.037000000
H     0.656000000     0.156000000     6.731000000
H     0.622000000    -1.342000000     6.514000000
O     2.040000000    -7.096000000     4.464000000
H     1.996000000    -6.959000000     3.517000000
H     1.428000000    -6.457000000     4.828000000
O     1.315000000    -3.903000000    -1.421000000
H     2.167000000    -3.515000000    -1.218000000
H     0.825000000    -3.196000000    -1.842000000
O    -3.010000000     2.634000000    -5.824000000
H    -3.233000000     1.776000000    -6.186000000
H    -3.180000000     3.247000000    -6.540000000
O    -4.268000000    -2.730000000     2.261000000
H    -4.530000000    -2.014000000     1.683000000
H    -3.387000000    -2.493000000     2.552000000
O     2.943000000     5.600000000     1.678000000
H     2.121000000     6.073000000     1.546000000
H     3.002000000     5.009000000     0.929000000
O     5.027000000    -2.664000000     0.821000000
H     4.460000000    -3.044000000     1.492000000
H     4.574000000    -2.839000000    -0.004000000
O     2.874000000    -0.685000000     3.801000000
H     3.645000000    -1.173000000     4.091000000
H     2.132000000    -1.193000000     4.129000000
O    -2.926000000     4.324000000    -0.805000000
H    -3.076000000     3.932000000    -1.665000000
H    -1.993000000     4.539000000    -0.798000000
O    -7.295000000    -1.484000000     1.203000000
H    -6.504000000    -1.001000000     0.964000000
H    -7.967000000    -1.153000000     0.606000000
O     3.266000000     4.947000000    -2.904000000
H     2.603000000     5.201000000    -3.547000000
H     4.100000000     5.143000000    -3.330000000
O     2.553000000    -5.359000000     1.091000000
H     2.823000000    -4.780000000     1.803000000
H     1.597000000    -5.330000000     1.108000000
O    -0.423000000     5.674000000    -5.100000000
H    -1.125000000     6.317000000    -5.001000000
H    -0.411000000     5.475000000    -6.037000000
O     0.565000000    -7.579000000     1.806000000
H    -0.054000000    -6.850000000     1.850000000
H     0.330000000    -8.044000000     1.003000000
O    -0.289000000     1.664000000     4.995000000
H    -1.201000000     1.373000000     4.998000000
H     0.023000000     1.464000000     4.113000000
O    -0.054000000     3.257000000    -4.058000000
H     0.841000000     2.978000000    -4.250000000
H    -0.141000000     4.103000000    -4.497000000
O     2.366000000     2.186000000    -4.997000000
H     2.987000000     2.708000000    -4.490000000
H     2.692000000     2.230000000    -5.895000000
