158
-3063.26915
C    -0.554000000    -1.014000000     0.909000000
H    -0.819000000    -1.681000000     1.725000000
C    -0.285000000     0.299000000     1.242000000
H    -0.359000000     0.590000000     2.287000000
C     0.151000000     1.198000000     0.319000000
H     0.494000000     2.116000000     0.676000000
C     0.357000000     0.806000000    -0.963000000
H     0.840000000     1.460000000    -1.685000000
C     0.080000000    -0.543000000    -1.329000000
H     0.289000000    -0.883000000    -2.340000000
C    -0.369000000    -1.475000000    -0.398000000
C    -0.514000000    -2.939000000    -0.819000000
O    -0.585000000    -3.759000000     0.033000000
O    -0.850000000    -3.295000000    -1.977000000
O     3.078000000     0.377000000     0.761000000
H     3.461000000     1.252000000     0.700000000
H     2.139000000     0.517000000     0.643000000
O     2.737000000    -6.051000000    -1.848000000
H     2.249000000    -5.988000000    -1.027000000
H     2.389000000    -5.342000000    -2.389000000
O     3.299000000    -0.902000000     3.426000000
H     2.831000000    -1.709000000     3.213000000
H     3.060000000    -0.295000000     2.725000000
O    -0.336000000     7.295000000    -2.943000000
H    -0.967000000     6.892000000    -2.347000000
H    -0.860000000     7.893000000    -3.476000000
O    -2.826000000    -3.177000000     2.621000000
H    -1.995000000    -3.645000000     2.696000000
H    -2.752000000    -2.456000000     3.247000000
O     0.439000000    -6.380000000    -0.156000000
H     0.104000000    -5.489000000    -0.258000000
H    -0.075000000    -6.902000000    -0.771000000
O    -3.125000000     3.014000000    -3.397000000
H    -3.584000000     2.764000000    -4.199000000
H    -2.958000000     2.184000000    -2.949000000
O     4.759000000     4.726000000     3.762000000
H     5.488000000     4.694000000     3.143000000
H     4.086000000     5.236000000     3.313000000
O     2.549000000     1.874000000     6.227000000
H     2.445000000     2.150000000     5.317000000
H     3.480000000     2.003000000     6.412000000
O     2.188000000    -3.176000000     2.698000000
H     2.716000000    -3.724000000     3.279000000
H     1.306000000    -3.541000000     2.762000000
O    -2.127000000    -3.269000000     6.570000000
H    -1.973000000    -2.850000000     5.723000000
H    -1.866000000    -4.180000000     6.438000000
O    -0.328000000    -4.096000000     2.582000000
H    -0.142000000    -5.035000000     2.615000000
H    -0.670000000    -3.951000000     1.700000000
O    -2.412000000    -2.010000000    -3.702000000
H    -1.915000000    -2.592000000    -3.126000000
H    -2.306000000    -2.389000000    -4.575000000
O    -1.870000000    -5.579000000    -2.374000000
H    -1.368000000    -4.764000000    -2.395000000
H    -2.613000000    -5.388000000    -1.802000000
O     3.199000000    -2.544000000     0.008000000
H     2.978000000    -1.644000000     0.250000000
H     3.128000000    -3.036000000     0.826000000
O    -1.283000000    -8.197000000    -1.612000000
H    -2.019000000    -8.689000000    -1.977000000
H    -1.498000000    -7.281000000    -1.787000000
O    -5.093000000    -3.280000000     1.136000000
H    -4.443000000    -2.956000000     1.760000000
H    -5.875000000    -2.757000000     1.312000000
O    -1.655000000     6.080000000    -0.668000000
H    -1.077000000     5.743000000     0.016000000
H    -2.325000000     5.405000000    -0.771000000
O    -4.802000000    -0.555000000    -4.699000000
H    -4.327000000    -1.085000000    -4.059000000
H    -4.738000000    -1.051000000    -5.516000000
O     1.393000000    -1.140000000    -5.209000000
H     1.487000000    -1.152000000    -6.162000000
H     1.956000000    -0.422000000    -4.922000000
O     3.038000000     0.356000000    -3.343000000
H     3.693000000     0.889000000    -3.794000000
H     2.655000000     0.946000000    -2.694000000
O     1.161000000    -4.341000000    -3.695000000
H     0.539000000    -4.066000000    -3.021000000
H     1.833000000    -3.659000000    -3.693000000
O    -0.880000000    -6.801000000    -5.279000000
H    -0.722000000    -6.271000000    -6.061000000
H    -0.928000000    -6.166000000    -4.565000000
O    -1.475000000     3.998000000     1.296000000
H    -2.032000000     3.257000000     1.532000000
H    -1.462000000     4.548000000     2.080000000
O     1.052000000    -6.989000000     2.399000000
H     1.798000000    -7.586000000     2.335000000
H     0.782000000    -6.845000000     1.492000000
O     1.720000000     4.206000000    -1.314000000
H     2.315000000     3.456000000    -1.317000000
H     1.029000000     3.965000000    -1.931000000
O     2.578000000    -2.315000000    -2.521000000
H     2.513000000    -1.373000000    -2.681000000
H     2.896000000    -2.383000000    -1.620000000
O     3.852000000     2.298000000    -1.550000000
H     4.141000000     2.969000000    -0.931000000
H     4.663000000     1.903000000    -1.869000000
O    -5.151000000    -4.181000000    -2.190000000
H    -5.535000000    -4.996000000    -2.514000000
H    -4.852000000    -4.392000000    -1.305000000
O    -1.476000000     2.280000000     4.262000000
H    -0.951000000     3.076000000     4.346000000
H    -2.357000000     2.595000000     4.060000000
O     4.640000000     5.495000000    -0.015000000
H     5.319000000     5.672000000    -0.667000000
H     4.315000000     6.360000000     0.232000000
O    -0.823000000    -3.534000000    -5.887000000
H    -0.150000000    -3.618000000    -5.212000000
H    -0.335000000    -3.513000000    -6.710000000
O     0.196000000     0.211000000     5.037000000
H     1.083000000     0.524000000     4.858000000
H    -0.367000000     0.959000000     4.834000000
O     1.473000000     6.335000000     0.317000000
H     2.117000000     7.020000000     0.135000000
H     1.615000000     5.684000000    -0.370000000
O    -3.344000000     1.607000000     0.892000000
H    -3.653000000     0.728000000     1.110000000
H    -2.806000000     1.485000000     0.110000000
O    -3.366000000    -5.008000000    -0.108000000
H    -2.512000000    -4.578000000    -0.076000000
H    -3.942000000    -4.435000000     0.398000000
O    -3.699000000    -6.204000000     2.592000000
H    -4.012000000    -5.627000000     1.894000000
H    -3.162000000    -6.855000000     2.141000000
O     2.924000000     3.501000000     1.238000000
H     3.123000000     4.180000000     0.593000000
H     3.393000000     3.775000000     2.026000000
O    -2.668000000     0.747000000    -1.772000000
H    -3.415000000     0.200000000    -2.017000000
H    -1.905000000     0.271000000    -2.100000000
O     1.494000000     1.970000000     3.430000000
H     1.347000000     1.803000000     2.499000000
H     1.458000000     2.923000000     3.510000000
O    -0.843000000     0.403000000    -4.380000000
H    -0.011000000    -0.024000000    -4.583000000
H    -1.508000000    -0.239000000    -4.630000000
O    -0.151000000     3.330000000    -3.415000000
H    -1.041000000     3.508000000    -3.112000000
H    -0.200000000     2.456000000    -3.803000000
O     2.394000000     5.919000000     2.775000000
H     2.003000000     5.966000000     1.903000000
H     2.209000000     6.773000000     3.166000000
O     2.222000000    -5.887000000    -5.764000000
H     1.750000000    -5.625000000    -4.974000000
H     2.031000000    -6.821000000    -5.858000000
O     0.832000000     4.705000000     4.667000000
H     1.594000000     4.920000000     4.130000000
H     0.261000000     5.469000000     4.591000000
O     1.199000000     5.332000000    -4.406000000
H     0.538000000     5.956000000    -4.105000000
H     0.951000000     4.503000000    -3.996000000
O    -2.242000000    -1.431000000     4.624000000
H    -2.882000000    -0.775000000     4.902000000
H    -1.406000000    -0.966000000     4.628000000
O    -1.352000000     6.076000000     3.281000000
H    -1.120000000     6.828000000     2.737000000
H    -1.513000000     6.448000000     4.148000000
