158
-3027.36422
C     0.265000000    -0.554000000     1.374000000
H     0.456000000    -0.855000000     2.401000000
C     0.285000000     0.798000000     0.968000000
H     0.538000000     1.607000000     1.649000000
C    -0.025000000     1.244000000    -0.300000000
H     0.004000000     2.334000000    -0.509000000
C    -0.375000000     0.264000000    -1.249000000
H    -0.630000000     0.609000000    -2.247000000
C    -0.175000000    -1.103000000    -0.949000000
H    -0.293000000    -1.810000000    -1.767000000
C     0.006000000    -1.529000000     0.359000000
C    -0.088000000    -3.022000000     0.787000000
O     0.481000000    -3.484000000     1.712000000
O    -0.657000000    -3.758000000     0.008000000
O     3.635000000    -2.351000000     0.632000000
H     3.562000000    -3.298000000     0.516000000
H     3.272000000    -2.188000000     1.502000000
O     0.503000000    -6.203000000     1.385000000
H     0.612000000    -6.167000000     0.435000000
H     0.187000000    -5.331000000     1.623000000
O     2.625000000    -2.583000000     3.135000000
H     2.434000000    -2.881000000     4.025000000
H     1.810000000    -2.728000000     2.655000000
O     1.278000000     7.003000000    -4.307000000
H     1.696000000     6.466000000    -3.634000000
H     0.748000000     7.631000000    -3.817000000
O    -2.712000000    -2.376000000     5.104000000
H    -2.933000000    -3.247000000     5.434000000
H    -3.336000000    -2.224000000     4.395000000
O    -3.626000000    -6.482000000     3.179000000
H    -2.860000000    -6.801000000     2.702000000
H    -4.334000000    -6.496000000     2.535000000
O     2.981000000     2.519000000    -6.535000000
H     3.702000000     2.304000000    -5.943000000
H     2.200000000     2.488000000    -5.983000000
O    -1.446000000    -8.938000000    -2.247000000
H    -0.508000000    -8.841000000    -2.413000000
H    -1.764000000    -8.042000000    -2.139000000
O     4.141000000     0.681000000     2.800000000
H     4.801000000     0.730000000     2.108000000
H     4.095000000    -0.248000000     3.023000000
O     4.401000000    -4.831000000     3.479000000
H     4.231000000    -4.166000000     4.147000000
H     3.580000000    -5.318000000     3.412000000
O    -0.606000000    -4.213000000     4.045000000
H    -1.219000000    -3.489000000     4.172000000
H    -0.152000000    -4.003000000     3.229000000
O    -3.062000000    -3.284000000    -0.777000000
H    -2.186000000    -3.536000000    -0.485000000
H    -3.575000000    -4.090000000    -0.722000000
O    -1.508000000     3.951000000    -5.813000000
H    -2.100000000     3.826000000    -5.072000000
H    -0.946000000     3.177000000    -5.805000000
O    -2.376000000    -6.282000000    -2.709000000
H    -1.880000000    -5.541000000    -3.057000000
H    -2.985000000    -5.890000000    -2.082000000
O     3.465000000    -5.245000000     0.461000000
H     4.356000000    -5.118000000     0.788000000
H     3.367000000    -6.195000000     0.396000000
O    -0.257000000     3.761000000    -2.741000000
H     0.102000000     4.525000000    -2.288000000
H    -1.094000000     3.597000000    -2.307000000
O     0.075000000     0.575000000     7.276000000
H    -0.107000000     1.285000000     7.892000000
H     0.968000000     0.743000000     6.975000000
O     3.249000000    -0.456000000    -3.871000000
H     2.855000000     0.194000000    -3.290000000
H     2.505000000    -0.938000000    -4.231000000
O     1.073000000     2.052000000    -4.476000000
H     0.420000000     2.625000000    -4.076000000
H     0.874000000     1.183000000    -4.128000000
O     1.322000000    -5.100000000    -1.106000000
H     0.628000000    -4.598000000    -0.677000000
H     2.104000000    -4.924000000    -0.583000000
O    -2.610000000     3.978000000     1.953000000
H    -2.978000000     3.098000000     1.867000000
H    -1.987000000     3.907000000     2.677000000
O    -3.367000000     2.942000000    -4.187000000
H    -3.090000000     2.027000000    -4.243000000
H    -3.156000000     3.202000000    -3.290000000
O     4.262000000     4.889000000    -2.226000000
H     4.040000000     5.813000000    -2.110000000
H     3.576000000     4.417000000    -1.756000000
O     2.345000000    -6.401000000     3.463000000
H     1.721000000    -6.606000000     2.766000000
H     1.983000000    -6.828000000     4.240000000
O     2.494000000     2.089000000     7.068000000
H     2.495000000     2.206000000     6.118000000
H     2.112000000     2.899000000     7.408000000
O     2.621000000     1.726000000    -1.623000000
H     2.343000000     2.640000000    -1.562000000
H     1.867000000     1.226000000    -1.311000000
O     1.852000000     4.310000000    -0.455000000
H     2.130000000     4.115000000     0.440000000
H     1.142000000     4.943000000    -0.352000000
O    -4.150000000    -5.762000000    -0.372000000
H    -4.146000000    -6.690000000    -0.604000000
H    -4.934000000    -5.653000000     0.165000000
O    -1.716000000     0.036000000     5.361000000
H    -2.017000000    -0.871000000     5.409000000
H    -0.915000000     0.051000000     5.885000000
O    -4.355000000    -2.902000000     2.721000000
H    -4.100000000    -3.457000000     1.984000000
H    -4.781000000    -2.146000000     2.316000000
O    -1.013000000     3.747000000     4.041000000
H    -1.695000000     4.099000000     4.613000000
H    -0.862000000     2.860000000     4.367000000
O     0.289000000    -2.561000000     6.214000000
H     0.921000000    -2.787000000     6.898000000
H    -0.028000000    -3.405000000     5.893000000
O    -1.196000000    -7.753000000     2.497000000
H    -0.548000000    -8.241000000     3.005000000
H    -0.688000000    -7.328000000     1.806000000
O    -3.062000000     0.157000000    -4.326000000
H    -3.315000000    -0.586000000    -4.874000000
H    -3.034000000    -0.200000000    -3.438000000
O    -0.266000000     5.896000000    -0.405000000
H    -1.152000000     5.791000000    -0.056000000
H    -0.023000000     6.793000000    -0.174000000
O    -4.872000000     1.829000000     1.820000000
H    -4.608000000     1.676000000     2.727000000
H    -4.310000000     1.248000000     1.306000000
O     2.981000000     2.436000000     4.248000000
H     3.292000000     1.653000000     3.794000000
H     2.847000000     3.079000000     3.552000000
O    -0.475000000    -3.148000000    -4.030000000
H     0.163000000    -3.859000000    -4.087000000
H    -1.302000000    -3.546000000    -4.302000000
O    -3.055000000     0.614000000     0.353000000
H    -3.296000000     0.134000000    -0.440000000
H    -2.120000000     0.440000000     0.463000000
O     5.638000000     2.179000000    -1.673000000
H     5.719000000     2.898000000    -2.300000000
H     4.718000000     1.919000000    -1.724000000
O    -3.067000000     6.511000000     0.960000000
H    -4.017000000     6.620000000     1.000000000
H    -2.908000000     5.649000000     1.345000000
O     1.945000000     4.632000000     2.705000000
H     1.243000000     4.029000000     2.947000000
H     1.634000000     5.490000000     2.992000000
O    -3.796000000    -0.865000000    -1.956000000
H    -3.336000000    -1.647000000    -1.649000000
H    -4.683000000    -1.169000000    -2.147000000
O    -1.329000000    -6.779000000     5.272000000
H    -1.983000000    -6.778000000     4.573000000
H    -0.896000000    -5.929000000     5.197000000
O     0.909000000    -1.120000000    -5.138000000
H     0.345000000    -1.747000000    -4.686000000
H     0.522000000    -1.035000000    -6.010000000
O    -2.908000000     3.825000000    -1.620000000
H    -3.683000000     4.372000000    -1.745000000
H    -2.876000000     3.665000000    -0.677000000
O     0.570000000    -5.727000000    -3.541000000
H     0.780000000    -5.330000000    -2.695000000
H     0.783000000    -6.654000000    -3.430000000
O    -3.916000000     0.707000000     4.052000000
H    -4.567000000     0.364000000     4.664000000
H    -3.079000000     0.388000000     4.388000000
