158
-2986.67368
C    -0.096000000    -0.588000000     1.399000000
H    -0.085000000    -0.995000000     2.407000000
C     0.542000000     0.619000000     1.065000000
H     0.908000000     1.208000000     1.902000000
C     0.536000000     1.116000000    -0.270000000
H     0.960000000     2.032000000    -0.376000000
C    -0.147000000     0.366000000    -1.204000000
H    -0.230000000     0.745000000    -2.219000000
C    -0.653000000    -0.865000000    -0.946000000
H    -1.107000000    -1.388000000    -1.783000000
C    -0.584000000    -1.394000000     0.351000000
C    -1.081000000    -2.846000000     0.581000000
O    -1.009000000    -3.458000000     1.634000000
O    -1.414000000    -3.525000000    -0.359000000
O     3.520000000    -2.581000000    -3.047000000
H     3.085000000    -1.728000000    -3.043000000
H     3.409000000    -2.902000000    -3.942000000
O     3.864000000    -0.336000000     2.496000000
H     2.956000000    -0.629000000     2.425000000
H     4.382000000    -1.132000000     2.377000000
O     3.064000000    -4.408000000    -0.772000000
H     2.325000000    -4.471000000    -0.167000000
H     2.765000000    -3.807000000    -1.453000000
O     0.694000000    -0.850000000     5.157000000
H     0.203000000    -0.061000000     5.385000000
H     1.562000000    -0.709000000     5.535000000
O    -3.641000000    -3.679000000     2.611000000
H    -4.051000000    -3.830000000     1.759000000
H    -2.799000000    -3.274000000     2.402000000
O    -2.102000000    -5.749000000     1.327000000
H    -1.574000000    -4.954000000     1.253000000
H    -2.512000000    -5.686000000     2.189000000
O    -0.219000000    -3.560000000     4.146000000
H    -0.580000000    -3.668000000     3.266000000
H    -0.380000000    -2.642000000     4.360000000
O     1.225000000    -6.299000000    -3.892000000
H     0.834000000    -7.142000000    -3.662000000
H     0.657000000    -5.650000000    -3.478000000
O     1.055000000     0.184000000    -5.136000000
H     1.338000000     0.808000000    -5.805000000
H     1.140000000    -0.672000000    -5.556000000
O     1.506000000    -7.191000000    -0.161000000
H     0.599000000    -7.429000000    -0.354000000
H     1.438000000    -6.512000000     0.510000000
O    -2.326000000     6.874000000    -1.249000000
H    -1.749000000     6.110000000    -1.256000000
H    -2.628000000     6.937000000    -0.343000000
O    -0.185000000    -3.785000000    -2.604000000
H    -0.658000000    -3.675000000    -1.779000000
H    -0.843000000    -4.114000000    -3.215000000
O     5.185000000     0.117000000    -2.470000000
H     5.089000000     1.058000000    -2.327000000
H     4.289000000    -0.219000000    -2.461000000
O    -2.576000000    -8.436000000     2.375000000
H    -2.002000000    -8.999000000     1.855000000
H    -2.439000000    -7.559000000     2.018000000
O    -3.833000000    -1.419000000    -2.591000000
H    -3.269000000    -0.659000000    -2.736000000
H    -4.495000000    -1.360000000    -3.279000000
O     0.202000000     2.511000000     5.311000000
H     0.990000000     2.542000000     5.853000000
H    -0.504000000     2.314000000     5.926000000
O    -1.777000000    -2.650000000    -5.281000000
H    -2.254000000    -3.374000000    -4.876000000
H    -1.377000000    -3.033000000    -6.061000000
O    -5.703000000    -1.209000000    -0.454000000
H    -4.971000000    -1.527000000    -0.983000000
H    -5.292000000    -0.694000000     0.240000000
O     3.805000000     4.880000000    -0.834000000
H     2.968000000     5.190000000    -1.181000000
H     4.219000000     5.663000000    -0.471000000
O     1.111000000    -2.812000000    -4.943000000
H     0.859000000    -3.161000000    -4.088000000
H     0.284000000    -2.558000000    -5.352000000
O    -1.567000000    -0.175000000    -4.368000000
H    -1.450000000    -1.119000000    -4.475000000
H    -0.678000000     0.179000000    -4.380000000
O     0.344000000     8.158000000    -1.488000000
H     0.087000000     7.262000000    -1.270000000
H     0.438000000     8.155000000    -2.440000000
O     1.207000000    -4.733000000     1.471000000
H     1.149000000    -5.142000000     2.334000000
H     0.480000000    -4.111000000     1.451000000
O     3.394000000     4.558000000     3.168000000
H     3.370000000     5.343000000     3.715000000
H     3.706000000     3.868000000     3.752000000
O     2.423000000    -0.189000000    -2.828000000
H     1.806000000     0.014000000    -3.532000000
H     1.933000000    -0.017000000    -2.024000000
O     1.716000000     5.257000000    -2.557000000
H     0.986000000     5.704000000    -2.986000000
H     1.927000000     4.528000000    -3.140000000
O    -6.160000000    -4.541000000    -2.117000000
H    -5.307000000    -4.114000000    -2.194000000
H    -6.210000000    -4.813000000    -1.200000000
O     1.956000000     4.131000000     0.990000000
H     2.458000000     4.135000000     1.805000000
H     2.619000000     4.098000000     0.300000000
O    -4.063000000     1.214000000     4.804000000
H    -3.542000000     0.794000000     5.488000000
H    -3.453000000     1.332000000     4.076000000
O    -3.639000000     0.374000000    -5.744000000
H    -4.329000000    -0.084000000    -5.265000000
H    -2.839000000     0.181000000    -5.255000000
O    -3.715000000    -4.070000000    -1.911000000
H    -3.642000000    -3.182000000    -2.261000000
H    -3.094000000    -4.091000000    -1.183000000
O    -0.214000000     3.886000000     3.011000000
H     0.575000000     3.912000000     2.469000000
H     0.034000000     3.354000000     3.768000000
O    -2.538000000     2.224000000    -0.610000000
H    -3.479000000     2.143000000    -0.452000000
H    -2.163000000     1.426000000    -0.238000000
O     2.529000000    -3.313000000     4.688000000
H     1.620000000    -3.414000000     4.405000000
H     3.045000000    -3.504000000     3.905000000
O     5.809000000     1.714000000     1.893000000
H     6.288000000     1.527000000     1.086000000
H     5.245000000     0.951000000     2.018000000
O     4.339000000     2.503000000    -4.836000000
H     4.758000000     3.231000000    -4.377000000
H     3.402000000     2.648000000    -4.710000000
O    -2.168000000    -5.009000000    -4.013000000
H    -2.508000000    -5.666000000    -4.620000000
H    -2.823000000    -4.964000000    -3.317000000
O    -2.615000000    -1.745000000     4.216000000
H    -2.500000000    -1.493000000     5.132000000
H    -3.231000000    -2.478000000     4.245000000
O    -3.785000000    -6.691000000    -0.477000000
H    -4.122000000    -5.878000000    -0.852000000
H    -3.136000000    -6.407000000     0.167000000
O     1.356000000    -6.133000000     4.214000000
H     0.872000000    -5.599000000     4.844000000
H     0.903000000    -6.976000000     4.217000000
O    -0.576000000     4.623000000    -1.246000000
H    -1.015000000     3.772000000    -1.232000000
H     0.313000000     4.438000000    -0.944000000
O     5.344000000     2.708000000    -1.676000000
H     5.687000000     3.162000000    -2.446000000
H     4.612000000     3.252000000    -1.383000000
O    -4.657000000     3.681000000    -1.959000000
H    -3.711000000     3.540000000    -1.924000000
H    -5.012000000     3.086000000    -1.299000000
O    -0.014000000     6.640000000     3.070000000
H     0.762000000     6.619000000     3.629000000
H    -0.027000000     5.782000000     2.645000000
O    -3.484000000    -0.235000000     1.851000000
H    -2.876000000    -0.772000000     2.360000000
H    -3.124000000     0.650000000     1.905000000
O     4.556000000     0.688000000     4.885000000
H     4.218000000     0.357000000     4.052000000
H     4.228000000     0.070000000     5.539000000
O     1.677000000     3.109000000    -4.725000000
H     1.690000000     3.042000000    -5.680000000
H     0.791000000     2.845000000    -4.478000000
O    -2.647000000     2.411000000     2.353000000
H    -1.768000000     2.776000000     2.455000000
H    -3.170000000     3.136000000     2.012000000
