158
-3056.69104
C     0.149000000     0.068000000     1.516000000
H     0.216000000     0.077000000     2.601000000
C    -0.541000000     1.015000000     0.723000000
H    -0.929000000     1.899000000     1.222000000
C    -0.623000000     0.833000000    -0.657000000
H    -1.144000000     1.644000000    -1.206000000
C     0.030000000    -0.207000000    -1.258000000
H    -0.176000000    -0.273000000    -2.324000000
C     0.752000000    -1.133000000    -0.529000000
H     1.128000000    -2.030000000    -1.015000000
C     0.831000000    -1.006000000     0.836000000
C     1.625000000    -2.079000000     1.638000000
O     1.754000000    -1.993000000     2.825000000
O     2.033000000    -3.097000000     1.083000000
O    -1.845000000    -5.035000000    -0.900000000
H    -0.902000000    -4.903000000    -0.990000000
H    -2.235000000    -4.244000000    -1.273000000
O     0.237000000     4.487000000     0.364000000
H    -0.315000000     3.929000000     0.912000000
H     0.594000000     5.138000000     0.968000000
O     0.950000000     1.924000000     6.318000000
H     0.964000000     1.208000000     5.683000000
H     1.598000000     1.673000000     6.976000000
O    -3.394000000    -0.685000000    -3.003000000
H    -4.334000000    -0.615000000    -2.834000000
H    -3.168000000    -1.575000000    -2.734000000
O    -0.718000000    -5.421000000     3.643000000
H    -0.176000000    -5.545000000     2.864000000
H    -1.389000000    -6.101000000     3.579000000
O     2.154000000    -7.075000000     0.198000000
H     3.012000000    -6.831000000     0.545000000
H     2.314000000    -7.884000000    -0.288000000
O    -5.139000000     3.683000000     1.322000000
H    -5.203000000     3.246000000     0.473000000
H    -4.339000000     4.206000000     1.263000000
O    -2.130000000    -3.498000000    -3.219000000
H    -1.304000000    -3.142000000    -3.545000000
H    -2.047000000    -4.444000000    -3.338000000
O     4.696000000    -3.729000000     0.924000000
H     5.190000000    -2.994000000     1.287000000
H     3.791000000    -3.564000000     1.191000000
O     3.142000000     1.075000000    -3.706000000
H     2.211000000     1.281000000    -3.792000000
H     3.586000000     1.753000000    -4.214000000
O    -1.157000000     5.729000000    -5.721000000
H    -0.367000000     5.250000000    -5.473000000
H    -0.916000000     6.188000000    -6.526000000
O     6.222000000    -1.301000000     1.700000000
H     6.071000000    -0.497000000     1.203000000
H     5.816000000    -1.137000000     2.551000000
O     4.591000000    -5.662000000    -0.951000000
H     4.231000000    -5.127000000    -1.659000000
H     4.721000000    -5.047000000    -0.229000000
O     0.667000000    -5.246000000     1.446000000
H     1.295000000    -5.763000000     0.941000000
H     1.118000000    -4.418000000     1.613000000
O    -3.690000000    -0.974000000    -5.846000000
H    -4.620000000    -0.920000000    -6.066000000
H    -3.613000000    -0.509000000    -5.014000000
O     4.027000000    -1.140000000    -5.323000000
H     4.629000000    -0.630000000    -5.865000000
H     3.677000000    -0.508000000    -4.695000000
O     4.165000000     3.337000000     2.468000000
H     3.657000000     2.723000000     1.938000000
H     4.096000000     2.997000000     3.360000000
O    -2.266000000     1.759000000    -3.787000000
H    -2.521000000     1.747000000    -4.710000000
H    -2.575000000     0.922000000    -3.442000000
O    -3.831000000     6.054000000    -1.389000000
H    -3.370000000     5.413000000    -1.931000000
H    -3.452000000     5.946000000    -0.516000000
O     2.108000000     3.435000000    -1.478000000
H     1.652000000     3.115000000    -2.256000000
H     1.448000000     3.938000000    -1.002000000
O     2.940000000     1.847000000     0.574000000
H     2.605000000     2.291000000    -0.205000000
H     2.192000000     1.351000000     0.908000000
O     1.113000000    -0.723000000     5.355000000
H     1.952000000    -1.029000000     5.697000000
H     0.729000000    -1.494000000     4.937000000
O     0.766000000    -3.402000000     4.817000000
H     0.212000000    -4.153000000     4.601000000
H     1.346000000    -3.308000000     4.061000000
O    -1.202000000     4.324000000     2.836000000
H    -1.847000000     3.865000000     3.374000000
H    -0.828000000     4.983000000     3.421000000
O     4.554000000    -0.802000000    -2.411000000
H     4.046000000    -0.116000000    -2.843000000
H     5.268000000    -0.990000000    -3.020000000
O    -2.344000000    -1.538000000     3.384000000
H    -2.533000000    -0.693000000     2.975000000
H    -2.257000000    -1.339000000     4.316000000
O     3.416000000    -3.242000000    -1.990000000
H     3.267000000    -3.022000000    -1.070000000
H     3.961000000    -2.529000000    -2.322000000
O    -2.716000000     1.833000000    -6.410000000
H    -2.650000000     0.915000000    -6.672000000
H    -2.301000000     2.316000000    -7.124000000
O    -5.075000000     1.807000000    -0.918000000
H    -4.765000000     0.902000000    -0.869000000
H    -4.770000000     2.119000000    -1.770000000
O     2.617000000    -5.904000000     4.056000000
H     3.078000000    -5.179000000     4.478000000
H     3.278000000    -6.317000000     3.500000000
O    -5.098000000     3.403000000    -3.335000000
H    -5.470000000     2.846000000    -4.019000000
H    -5.014000000     4.263000000    -3.747000000
O    -1.748000000    -3.272000000     1.502000000
H    -1.157000000    -3.982000000     1.752000000
H    -1.674000000    -2.637000000     2.215000000
O    -3.177000000    -1.170000000     0.023000000
H    -2.578000000    -1.883000000     0.243000000
H    -2.611000000    -0.478000000    -0.318000000
O     4.240000000    -1.007000000     3.725000000
H     3.416000000    -1.425000000     3.472000000
H     4.690000000    -1.665000000     4.254000000
O     5.382000000     0.618000000     0.218000000
H     4.612000000     1.068000000     0.565000000
H     5.039000000     0.063000000    -0.483000000
O     4.829000000     1.963000000     4.888000000
H     5.433000000     1.634000000     5.553000000
H     4.584000000     1.188000000     4.383000000
O     1.239000000     4.013000000    -5.563000000
H     1.458000000     4.757000000    -5.002000000
H     1.396000000     4.330000000    -6.453000000
O    -2.683000000     2.102000000     4.525000000
H    -2.386000000     1.275000000     4.904000000
H    -3.054000000     1.857000000     3.677000000
O    -2.215000000     4.611000000    -3.046000000
H    -2.536000000     3.713000000    -3.126000000
H    -1.732000000     4.766000000    -3.858000000
O     2.291000000    -3.325000000     6.846000000
H     1.656000000    -3.269000000     6.131000000
H     2.167000000    -4.202000000     7.208000000
O     0.804000000     1.072000000    -7.603000000
H     0.275000000     0.726000000    -8.322000000
H     0.346000000     0.790000000    -6.812000000
O     0.628000000     2.296000000    -3.562000000
H    -0.284000000     2.129000000    -3.327000000
H     0.578000000     2.905000000    -4.299000000
O     0.346000000    -3.051000000    -4.447000000
H     0.775000000    -3.608000000    -3.797000000
H     0.326000000    -3.584000000    -5.242000000
O     1.025000000    -4.651000000    -2.055000000
H     1.755000000    -4.055000000    -2.225000000
H     1.341000000    -5.223000000    -1.355000000
O    -1.708000000    -0.259000000     5.566000000
H    -2.038000000    -0.475000000     6.438000000
H    -0.755000000    -0.291000000     5.657000000
O    -0.257000000    -0.563000000    -5.477000000
H    -0.497000000    -1.231000000    -6.119000000
H     0.220000000    -1.042000000    -4.800000000
O    -2.937000000     5.592000000     1.233000000
H    -2.940000000     6.443000000     1.670000000
H    -2.196000000     5.126000000     1.620000000
O    -3.856000000     0.612000000     2.254000000
H    -3.828000000    -0.043000000     1.557000000
H    -4.779000000     0.657000000     2.504000000
