158
-3040.13265
C     0.933000000    -0.671000000     0.865000000
H     1.749000000    -1.075000000     1.459000000
C     1.242000000     0.431000000     0.087000000
H     2.219000000     0.908000000     0.072000000
C     0.227000000     0.866000000    -0.787000000
H     0.329000000     1.778000000    -1.294000000
C    -1.014000000     0.318000000    -0.809000000
H    -1.694000000     0.796000000    -1.510000000
C    -1.267000000    -0.769000000     0.015000000
H    -2.257000000    -1.219000000     0.016000000
C    -0.292000000    -1.275000000     0.868000000
C    -0.635000000    -2.231000000     1.974000000
O    -1.738000000    -2.663000000     2.128000000
O     0.285000000    -2.546000000     2.752000000
O    -5.329000000     2.913000000    -2.310000000
H    -5.581000000     1.991000000    -2.366000000
H    -4.383000000     2.895000000    -2.168000000
O    -3.858000000    -0.686000000    -2.657000000
H    -4.039000000    -1.617000000    -2.533000000
H    -4.719000000    -0.269000000    -2.632000000
O    -1.265000000     4.875000000     1.687000000
H    -1.493000000     5.104000000     2.588000000
H    -1.159000000     5.718000000     1.246000000
O    -3.746000000     3.246000000     0.590000000
H    -4.528000000     3.627000000     0.192000000
H    -3.018000000     3.625000000     0.097000000
O     4.869000000     2.746000000    -0.608000000
H     4.179000000     2.868000000    -1.259000000
H     5.194000000     1.859000000    -0.767000000
O    -2.198000000    -4.822000000     5.446000000
H    -2.668000000    -5.058000000     6.246000000
H    -2.269000000    -3.869000000     5.399000000
O     4.972000000    -1.980000000     4.948000000
H     5.745000000    -2.500000000     4.730000000
H     4.276000000    -2.625000000     5.075000000
O    -2.699000000     3.232000000    -2.246000000
H    -2.378000000     2.920000000    -3.093000000
H    -2.151000000     3.992000000    -2.048000000
O    -0.337000000    -1.549000000    -3.809000000
H     0.175000000    -1.862000000    -3.063000000
H    -0.674000000    -0.698000000    -3.529000000
O     0.542000000    -4.561000000     4.349000000
H    -0.195000000    -4.604000000     4.959000000
H     0.364000000    -3.787000000     3.814000000
O    -1.899000000    -2.188000000     4.855000000
H    -1.714000000    -2.581000000     4.002000000
H    -2.505000000    -1.473000000     4.663000000
O     4.285000000    -0.606000000     2.626000000
H     3.802000000     0.203000000     2.793000000
H     4.198000000    -1.108000000     3.436000000
O    -5.104000000     0.954000000     1.420000000
H    -4.411000000     1.356000000     0.896000000
H    -5.377000000     1.644000000     2.025000000
O     2.976000000     0.398000000    -5.051000000
H     2.435000000     0.873000000    -5.683000000
H     2.446000000    -0.360000000    -4.804000000
O     5.540000000     0.238000000    -0.755000000
H     5.881000000    -0.618000000    -0.496000000
H     5.448000000     0.182000000    -1.706000000
O     1.475000000    -4.437000000     1.190000000
H     1.307000000    -3.652000000     1.711000000
H     0.908000000    -5.105000000     1.574000000
O    -2.423000000    -4.878000000     0.853000000
H    -2.374000000    -4.113000000     1.426000000
H    -3.148000000    -5.395000000     1.206000000
O     2.295000000     1.748000000     3.543000000
H     1.732000000     2.261000000     2.963000000
H     1.723000000     1.062000000     3.888000000
O     3.157000000    -4.163000000     4.514000000
H     3.479000000    -5.007000000     4.199000000
H     2.205000000    -4.265000000     4.541000000
O    -0.030000000     3.275000000    -5.026000000
H    -0.555000000     3.028000000    -5.788000000
H     0.027000000     2.474000000    -4.505000000
O    -2.223000000     0.796000000    -4.508000000
H    -2.828000000     0.469000000    -3.843000000
H    -2.783000000     1.238000000    -5.145000000
O    -2.085000000     0.708000000     4.463000000
H    -1.621000000     1.341000000     3.914000000
H    -1.396000000     0.137000000     4.804000000
O    -0.572000000    -1.912000000     7.357000000
H     0.349000000    -2.086000000     7.161000000
H    -1.042000000    -2.206000000     6.577000000
O    -1.483000000    -7.283000000     4.230000000
H    -1.225000000    -6.725000000     3.496000000
H    -1.668000000    -6.671000000     4.943000000
O     1.179000000    -5.062000000    -2.811000000
H     1.261000000    -4.394000000    -2.131000000
H     0.253000000    -5.307000000    -2.796000000
O    -5.159000000    -3.097000000    -2.292000000
H    -5.718000000    -3.510000000    -2.949000000
H    -5.460000000    -3.460000000    -1.459000000
O     2.247000000     4.434000000     1.798000000
H     1.730000000     4.301000000     1.004000000
H     3.157000000     4.386000000     1.503000000
O     1.410000000     4.407000000    -0.802000000
H     1.891000000     3.800000000    -1.365000000
H     0.528000000     4.430000000    -1.174000000
O     5.381000000     4.125000000     1.687000000
H     5.801000000     4.969000000     1.519000000
H     5.257000000     3.742000000     0.819000000
O    -2.786000000    -3.856000000    -4.634000000
H    -3.102000000    -3.602000000    -3.767000000
H    -2.449000000    -3.045000000    -5.014000000
O     3.642000000     4.631000000    -4.826000000
H     3.088000000     5.409000000    -4.885000000
H     4.426000000     4.857000000    -5.327000000
O    -4.548000000    -0.205000000     5.100000000
H    -3.797000000     0.312000000     4.809000000
H    -4.816000000    -0.696000000     4.323000000
O    -2.058000000    -1.505000000    -6.313000000
H    -1.563000000    -1.191000000    -5.556000000
H    -1.419000000    -1.522000000    -7.027000000
O     2.195000000    -2.083000000     6.558000000
H     2.588000000    -2.019000000     7.429000000
H     2.448000000    -2.951000000     6.245000000
O     1.867000000    -7.225000000     4.021000000
H     2.529000000    -6.899000000     3.412000000
H     1.087000000    -6.706000000     3.828000000
O     1.890000000    -2.377000000    -1.911000000
H     2.251000000    -1.904000000    -1.161000000
H     2.641000000    -2.836000000    -2.289000000
O    -4.369000000    -1.497000000     2.421000000
H    -4.798000000    -0.928000000     1.782000000
H    -3.695000000    -1.956000000     1.919000000
O     6.182000000    -1.955000000     0.886000000
H     5.452000000    -2.549000000     0.711000000
H     5.802000000    -1.262000000     1.425000000
O     1.161000000    -0.685000000     4.426000000
H     1.532000000    -1.102000000     5.204000000
H     0.914000000    -1.415000000     3.858000000
O    -0.129000000     2.463000000     2.222000000
H    -0.193000000     1.945000000     1.420000000
H    -0.603000000     3.271000000     2.024000000
O     4.083000000    -4.027000000     0.221000000
H     3.201000000    -4.276000000     0.497000000
H     4.093000000    -4.188000000    -0.723000000
O     6.416000000     1.813000000     2.074000000
H     5.986000000     2.664000000     2.159000000
H     5.932000000     1.368000000     1.379000000
O    -0.370000000    -6.527000000     2.003000000
H    -0.940000000    -6.004000000     1.439000000
H    -0.401000000    -7.406000000     1.626000000
O     2.237000000     2.774000000    -6.441000000
H     2.738000000     3.395000000    -5.913000000
H     1.323000000     2.957000000    -6.223000000
O    -1.268000000    -5.524000000    -1.532000000
H    -1.776000000    -5.240000000    -0.772000000
H    -1.890000000    -6.021000000    -2.064000000
O     0.541000000     1.409000000     6.478000000
H     0.372000000     0.616000000     5.970000000
H     1.241000000     1.161000000     7.082000000
O    -1.051000000     5.304000000    -2.350000000
H    -0.516000000     5.281000000    -3.143000000
H    -1.462000000     6.169000000    -2.363000000
O     2.981000000     2.930000000    -2.693000000
H     3.408000000     2.183000000    -3.113000000
H     3.114000000     3.656000000    -3.303000000
