158
-3043.76722
C    -0.232000000    -0.339000000     1.405000000
H    -0.486000000    -0.431000000     2.458000000
C    -0.492000000     0.927000000     0.812000000
H    -0.998000000     1.649000000     1.447000000
C    -0.206000000     1.068000000    -0.561000000
H    -0.530000000     2.063000000    -1.029000000
C     0.362000000     0.029000000    -1.339000000
H     0.595000000     0.214000000    -2.385000000
C     0.602000000    -1.199000000    -0.717000000
H     0.968000000    -1.985000000    -1.372000000
C     0.280000000    -1.414000000     0.624000000
C     0.483000000    -2.730000000     1.329000000
O    -0.013000000    -2.855000000     2.425000000
O     1.030000000    -3.660000000     0.819000000
O     3.283000000    -2.550000000    -0.527000000
H     2.840000000    -3.240000000    -1.022000000
H     2.712000000    -2.389000000     0.224000000
O     0.132000000     5.698000000     0.817000000
H    -0.099000000     5.152000000     1.568000000
H    -0.580000000     6.334000000     0.754000000
O     0.400000000     0.048000000     6.838000000
H     0.518000000    -0.644000000     6.188000000
H     0.485000000    -0.398000000     7.681000000
O    -2.728000000    -3.338000000     2.624000000
H    -2.083000000    -2.950000000     2.032000000
H    -2.396000000    -3.145000000     3.501000000
O    -0.041000000    -8.618000000    -1.172000000
H     0.857000000    -8.949000000    -1.155000000
H     0.047000000    -7.677000000    -1.024000000
O     2.837000000    -5.236000000     2.067000000
H     3.001000000    -5.833000000     1.338000000
H     2.260000000    -4.565000000     1.702000000
O     0.458000000     2.214000000    -4.347000000
H    -0.276000000     2.640000000    -3.903000000
H     0.107000000     1.371000000    -4.634000000
O    -3.625000000     5.058000000    -4.748000000
H    -2.706000000     4.929000000    -4.985000000
H    -3.726000000     6.008000000    -4.688000000
O     4.128000000    -6.414000000    -0.538000000
H     4.770000000    -7.124000000    -0.541000000
H     4.638000000    -5.629000000    -0.739000000
O     1.630000000     7.236000000    -3.130000000
H     1.844000000     7.913000000    -3.771000000
H     1.811000000     6.412000000    -3.582000000
O     0.193000000    -5.535000000    -1.025000000
H     0.665000000    -5.212000000    -1.792000000
H     0.566000000    -5.046000000    -0.291000000
O     3.037000000    -1.891000000    -6.163000000
H     2.925000000    -1.223000000    -5.487000000
H     2.565000000    -1.545000000    -6.921000000
O    -3.230000000    -6.091000000     2.755000000
H    -3.875000000    -5.975000000     3.453000000
H    -2.815000000    -5.233000000     2.667000000
O     2.357000000     0.044000000    -4.076000000
H     1.794000000     0.818000000    -4.109000000
H     2.942000000     0.205000000    -3.335000000
O     3.052000000     3.261000000     3.642000000
H     2.409000000     2.924000000     3.018000000
H     3.562000000     2.493000000     3.899000000
O    -1.964000000     3.091000000    -3.590000000
H    -2.595000000     2.634000000    -4.146000000
H    -2.031000000     2.654000000    -2.742000000
O    -0.730000000     5.111000000    -5.761000000
H    -0.072000000     5.440000000    -5.148000000
H    -0.487000000     5.495000000    -6.603000000
O    -2.353000000     4.015000000     0.097000000
H    -1.660000000     4.407000000    -0.434000000
H    -2.763000000     4.757000000     0.541000000
O     2.361000000     5.449000000    -0.884000000
H     2.056000000     6.211000000    -1.377000000
H     1.738000000     5.367000000    -0.162000000
O     2.674000000     2.277000000     0.975000000
H     2.782000000     2.763000000     0.158000000
H     1.976000000     1.649000000     0.790000000
O     0.462000000    -1.646000000     4.685000000
H    -0.390000000    -1.978000000     4.967000000
H     0.663000000    -2.145000000     3.893000000
O    -2.561000000     5.852000000     4.409000000
H    -2.084000000     5.377000000     3.729000000
H    -2.422000000     5.337000000     5.203000000
O    -1.757000000     1.197000000     5.500000000
H    -1.846000000     0.518000000     4.832000000
H    -1.176000000     0.814000000     6.157000000
O     0.617000000    -4.730000000     4.214000000
H     0.996000000    -5.512000000     3.813000000
H     0.374000000    -4.174000000     3.474000000
O    -0.803000000     4.354000000     3.159000000
H    -0.911000000     3.503000000     2.733000000
H    -0.134000000     4.204000000     3.827000000
O    -5.038000000    -1.493000000     3.300000000
H    -5.296000000    -1.505000000     4.222000000
H    -4.577000000    -2.322000000     3.170000000
O     3.655000000     3.068000000    -1.727000000
H     3.018000000     3.782000000    -1.707000000
H     4.208000000     3.262000000    -2.484000000
O    -3.117000000     0.504000000     2.620000000
H    -3.740000000    -0.133000000     2.970000000
H    -3.157000000     0.381000000     1.671000000
O     1.203000000    -0.153000000    -7.633000000
H     1.288000000     0.790000000    -7.492000000
H     0.894000000    -0.493000000    -6.794000000
O     4.497000000    -3.071000000    -3.678000000
H     3.813000000    -2.600000000    -4.155000000
H     5.272000000    -2.994000000    -4.235000000
O    -0.727000000    -4.982000000     6.537000000
H    -0.118000000    -4.944000000     5.800000000
H    -0.896000000    -5.916000000     6.661000000
O    -2.386000000    -5.567000000    -1.664000000
H    -1.444000000    -5.415000000    -1.580000000
H    -2.476000000    -6.061000000    -2.479000000
O    -3.480000000    -0.987000000    -0.502000000
H    -2.858000000    -0.323000000    -0.800000000
H    -3.004000000    -1.814000000    -0.582000000
O     3.046000000    -1.423000000     5.808000000
H     2.304000000    -1.422000000     5.204000000
H     2.787000000    -2.025000000     6.506000000
O     4.151000000     0.304000000    -2.100000000
H     4.526000000    -0.367000000    -1.529000000
H     3.779000000     0.950000000    -1.499000000
O    -2.619000000     7.621000000    -2.577000000
H    -1.799000000     8.070000000    -2.783000000
H    -2.396000000     6.690000000    -2.606000000
O    -3.689000000     2.135000000    -1.466000000
H    -3.246000000     2.620000000    -0.769000000
H    -4.618000000     2.325000000    -1.337000000
O    -2.081000000    -2.437000000     5.354000000
H    -2.871000000    -2.325000000     5.883000000
H    -1.750000000    -3.301000000     5.599000000
O     0.925000000     2.891000000     5.548000000
H     1.787000000     2.594000000     5.256000000
H     0.561000000     2.144000000     6.021000000
O    -3.688000000     0.590000000    -3.599000000
H    -3.656000000     1.066000000    -2.769000000
H    -4.489000000     0.069000000    -3.545000000
O    -0.651000000    -0.258000000    -5.775000000
H    -1.131000000     0.151000000    -6.495000000
H    -1.218000000    -0.971000000    -5.483000000
O    -0.653000000     5.330000000    -2.240000000
H    -0.883000000     4.655000000    -2.879000000
H     0.300000000     5.394000000    -2.292000000
O     0.504000000    -2.820000000    -3.768000000
H     1.143000000    -3.358000000    -3.301000000
H     0.994000000    -2.041000000    -4.033000000
O     1.989000000     4.716000000    -4.394000000
H     2.942000000     4.672000000    -4.311000000
H     1.710000000     3.802000000    -4.439000000
O     2.430000000    -4.448000000    -2.430000000
H     2.574000000    -5.368000000    -2.651000000
H     3.232000000    -4.006000000    -2.710000000
O    -2.098000000    -2.731000000    -4.967000000
H    -1.826000000    -3.255000000    -5.721000000
H    -1.332000000    -2.722000000    -4.393000000
O    -3.702000000     2.991000000     3.946000000
H    -3.478000000     2.060000000     3.956000000
H    -3.948000000     3.169000000     3.039000000
O     4.428000000    -6.033000000     4.132000000
H     5.130000000    -5.387000000     4.055000000
H     3.849000000    -5.846000000     3.393000000
