158
-3022.08872
C    -0.031000000    -0.048000000     1.533000000
H    -0.208000000    -0.067000000     2.605000000
C    -0.265000000     1.078000000     0.752000000
H    -0.492000000     2.017000000     1.251000000
C    -0.082000000     1.032000000    -0.618000000
H    -0.043000000     1.960000000    -1.137000000
C     0.093000000    -0.151000000    -1.278000000
H     0.073000000    -0.181000000    -2.365000000
C     0.290000000    -1.314000000    -0.561000000
H     0.423000000    -2.270000000    -1.061000000
C     0.319000000    -1.292000000     0.832000000
C     0.393000000    -2.569000000     1.606000000
O    -0.026000000    -2.635000000     2.742000000
O     1.006000000    -3.500000000     1.138000000
O     4.615000000     3.782000000    -0.652000000
H     3.840000000     3.293000000    -0.376000000
H     4.781000000     3.483000000    -1.546000000
O    -0.233000000     4.652000000     0.651000000
H    -0.852000000     4.019000000     1.016000000
H    -0.440000000     5.473000000     1.097000000
O     0.544000000     1.041000000     5.440000000
H    -0.046000000     0.287000000     5.454000000
H     1.419000000     0.662000000     5.519000000
O    -4.658000000    -2.026000000     3.782000000
H    -4.159000000    -1.209000000     3.765000000
H    -4.005000000    -2.707000000     3.622000000
O    -2.301000000    -3.283000000     3.936000000
H    -1.481000000    -2.895000000     3.630000000
H    -2.034000000    -3.891000000     4.626000000
O     1.519000000    -6.820000000    -1.258000000
H     2.120000000    -6.342000000    -0.686000000
H     1.995000000    -7.617000000    -1.493000000
O     2.850000000    -5.366000000     1.137000000
H     3.560000000    -4.753000000     0.945000000
H     2.085000000    -4.810000000     1.281000000
O     2.167000000     0.903000000    -4.894000000
H     1.572000000     1.487000000    -4.425000000
H     2.618000000     1.472000000    -5.519000000
O    -2.865000000     3.965000000    -5.654000000
H    -3.425000000     3.371000000    -6.154000000
H    -2.449000000     3.406000000    -4.997000000
O     5.529000000    -4.132000000     0.689000000
H     6.172000000    -4.213000000    -0.015000000
H     5.188000000    -3.242000000     0.600000000
O     4.264000000    -5.781000000    -1.662000000
H     3.731000000    -5.997000000    -2.427000000
H     4.018000000    -4.882000000    -1.444000000
O    -0.422000000    -5.053000000    -0.437000000
H     0.294000000    -5.550000000    -0.833000000
H    -0.012000000    -4.572000000     0.282000000
O    -2.389000000    -6.546000000     3.045000000
H    -1.651000000    -7.057000000     3.377000000
H    -2.126000000    -5.634000000     3.174000000
O     1.097000000    -1.359000000    -5.755000000
H     1.505000000    -0.494000000    -5.724000000
H     0.654000000    -1.446000000    -4.911000000
O    -3.990000000     6.823000000    -3.061000000
H    -3.405000000     6.087000000    -2.887000000
H    -4.549000000     6.874000000    -2.286000000
O     2.609000000     2.983000000     2.859000000
H     2.661000000     2.364000000     2.131000000
H     3.495000000     3.000000000     3.222000000
O    -1.462000000     1.799000000    -4.352000000
H    -1.582000000     1.171000000    -5.064000000
H    -2.344000000     1.939000000    -4.006000000
O    -5.279000000     3.780000000    -1.273000000
H    -6.107000000     3.450000000    -0.923000000
H    -4.675000000     3.746000000    -0.531000000
O     1.787000000     3.655000000    -1.346000000
H     1.413000000     3.509000000    -2.215000000
H     1.155000000     4.224000000    -0.906000000
O     3.226000000     1.122000000     0.547000000
H     3.396000000     1.263000000    -0.384000000
H     2.303000000     0.869000000     0.586000000
O    -0.128000000    -1.857000000     5.327000000
H    -0.583000000    -2.654000000     5.598000000
H     0.090000000    -2.006000000     4.407000000
O     2.890000000     5.870000000     2.678000000
H     2.345000000     5.110000000     2.471000000
H     3.588000000     5.521000000     3.231000000
O     0.082000000    -7.543000000     1.564000000
H    -0.701000000    -6.995000000     1.624000000
H     0.800000000    -6.922000000     1.440000000
O     1.169000000    -4.832000000     3.852000000
H     1.524000000    -5.441000000     3.204000000
H     0.791000000    -4.123000000     3.333000000
O    -1.969000000     3.799000000     2.836000000
H    -2.509000000     3.174000000     3.320000000
H    -1.071000000     3.579000000     3.080000000
O     3.391000000     1.181000000    -2.058000000
H     2.796000000     0.696000000    -2.630000000
H     3.289000000     2.094000000    -2.326000000
O    -4.319000000    -1.890000000     0.257000000
H    -3.941000000    -2.634000000    -0.213000000
H    -3.710000000    -1.170000000     0.095000000
O     0.973000000     7.341000000     0.685000000
H     1.469000000     6.549000000     0.478000000
H     0.301000000     7.049000000     1.301000000
O     2.655000000    -3.432000000    -1.064000000
H     2.041000000    -3.388000000    -0.331000000
H     3.169000000    -2.628000000    -0.995000000
O     1.346000000    -5.308000000     6.459000000
H     1.430000000    -5.181000000     5.514000000
H     2.153000000    -5.754000000     6.714000000
O    -3.107000000    -4.230000000    -0.264000000
H    -2.157000000    -4.303000000    -0.361000000
H    -3.460000000    -4.607000000    -1.071000000
O    -2.782000000     0.121000000    -0.647000000
H    -3.182000000     0.497000000    -1.431000000
H    -1.864000000     0.389000000    -0.695000000
O     3.080000000    -1.636000000     4.715000000
H     3.788000000    -2.269000000     4.835000000
H     2.482000000    -1.804000000     5.443000000
O     4.574000000    -1.355000000    -0.313000000
H     4.531000000    -0.655000000     0.338000000
H     5.057000000    -0.971000000    -1.045000000
O     3.281000000     0.950000000     4.952000000
H     4.108000000     0.994000000     5.432000000
H     3.244000000     0.052000000     4.621000000
O    -0.979000000     5.458000000    -2.062000000
H    -0.183000000     5.558000000    -2.584000000
H    -0.675000000     5.105000000    -1.226000000
O    -3.072000000     1.658000000     4.291000000
H    -2.772000000     1.015000000     4.933000000
H    -3.385000000     1.134000000     3.554000000
O    -3.792000000     1.376000000    -2.765000000
H    -4.388000000     2.046000000    -2.430000000
H    -4.355000000     0.778000000    -3.257000000
O     0.496000000     3.545000000     4.261000000
H     1.259000000     3.334000000     3.722000000
H     0.305000000     2.734000000     4.733000000
O     4.148000000     3.463000000    -3.534000000
H     4.161000000     4.378000000    -3.815000000
H     3.885000000     2.976000000    -4.315000000
O    -2.312000000    -0.098000000    -6.215000000
H    -2.934000000    -0.036000000    -6.940000000
H    -2.473000000    -0.961000000    -5.834000000
O     1.083000000     3.326000000    -3.906000000
H     0.290000000     2.927000000    -4.264000000
H     1.255000000     4.073000000    -4.480000000
O    -1.773000000    -4.282000000    -3.885000000
H    -1.126000000    -3.597000000    -3.719000000
H    -1.274000000    -4.989000000    -4.295000000
O     1.375000000     6.057000000    -3.061000000
H     1.266000000     6.321000000    -3.975000000
H     2.093000000     5.424000000    -3.079000000
O     0.576000000    -2.993000000    -3.483000000
H     1.494000000    -3.187000000    -3.673000000
H     0.347000000    -3.590000000    -2.771000000
O    -2.692000000    -0.217000000     6.084000000
H    -3.271000000    -0.965000000     6.231000000
H    -2.175000000    -0.154000000     6.887000000
O    -3.898000000     4.607000000     1.184000000
H    -3.642000000     5.524000000     1.080000000
H    -3.235000000     4.238000000     1.767000000
O    -3.541000000    -0.041000000     2.265000000
H    -4.015000000    -0.840000000     2.030000000
H    -3.178000000     0.274000000     1.437000000
