158
-3054.07403
C    -0.353000000    -1.194000000     0.821000000
H    -0.810000000    -2.069000000     1.274000000
C    -1.220000000    -0.172000000     0.386000000
H    -2.280000000    -0.281000000     0.601000000
C    -0.722000000     0.951000000    -0.298000000
H    -1.423000000     1.726000000    -0.666000000
C     0.580000000     0.925000000    -0.634000000
H     0.831000000     1.771000000    -1.269000000
C     1.431000000    -0.115000000    -0.313000000
H     2.467000000     0.001000000    -0.621000000
C     0.964000000    -1.168000000     0.453000000
C     1.874000000    -2.355000000     0.841000000
O     1.371000000    -3.233000000     1.577000000
O     3.082000000    -2.425000000     0.618000000
O     4.561000000     3.955000000    -2.754000000
H     4.872000000     4.463000000    -3.504000000
H     3.607000000     3.971000000    -2.833000000
O     5.946000000    -3.332000000     2.577000000
H     6.767000000    -3.365000000     3.068000000
H     6.084000000    -2.644000000     1.925000000
O     0.823000000     5.024000000    -0.928000000
H     0.763000000     5.411000000    -0.055000000
H     1.413000000     4.278000000    -0.820000000
O     1.312000000     1.259000000     5.177000000
H     1.119000000     0.557000000     4.555000000
H     1.926000000     0.867000000     5.797000000
O    -3.178000000     0.462000000    -3.017000000
H    -3.675000000    -0.215000000    -3.475000000
H    -2.471000000    -0.014000000    -2.581000000
O     2.105000000    -6.683000000     0.818000000
H     2.746000000    -7.188000000     0.317000000
H     2.603000000    -5.944000000     1.168000000
O    -4.115000000     2.176000000     0.889000000
H    -3.791000000     2.901000000     0.355000000
H    -3.482000000     2.102000000     1.603000000
O     3.717000000    -4.856000000     2.047000000
H     4.487000000    -4.361000000     2.326000000
H     3.193000000    -4.225000000     1.554000000
O     2.748000000    -0.233000000    -4.933000000
H     1.817000000    -0.354000000    -4.745000000
H     2.885000000     0.712000000    -4.866000000
O    -0.393000000     6.137000000    -5.501000000
H     0.319000000     5.651000000    -5.918000000
H    -0.513000000     5.707000000    -4.654000000
O     7.600000000    -1.711000000    -0.006000000
H     7.890000000    -1.741000000    -0.918000000
H     6.801000000    -1.183000000    -0.026000000
O     5.160000000    -4.686000000    -0.875000000
H     5.562000000    -5.273000000    -0.234000000
H     4.812000000    -3.964000000    -0.353000000
O    -0.064000000    -5.066000000     0.112000000
H     0.689000000    -5.621000000     0.313000000
H     0.015000000    -4.327000000     0.717000000
O    -2.228000000     6.854000000     2.165000000
H    -2.368000000     7.262000000     1.310000000
H    -2.934000000     6.212000000     2.242000000
O    -1.516000000     1.776000000    -5.829000000
H    -1.540000000     1.639000000    -6.776000000
H    -2.425000000     1.961000000    -5.591000000
O    -3.742000000     4.729000000     2.595000000
H    -3.339000000     3.934000000     2.944000000
H    -3.557000000     4.698000000     1.656000000
O    -3.267000000     4.847000000     0.056000000
H    -2.568000000     4.494000000    -0.494000000
H    -3.377000000     5.749000000    -0.247000000
O     1.849000000     3.832000000    -3.690000000
H     2.204000000     2.982000000    -3.949000000
H     1.275000000     4.082000000    -4.413000000
O     2.022000000     3.189000000     1.028000000
H     2.701000000     2.558000000     1.266000000
H     1.253000000     2.652000000     0.836000000
O     0.914000000    -0.913000000     3.734000000
H     0.887000000    -1.869000000     3.697000000
H     0.010000000    -0.655000000     3.913000000
O     1.178000000    -4.306000000     3.980000000
H     1.937000000    -4.863000000     3.805000000
H     1.049000000    -3.814000000     3.169000000
O     0.447000000     3.550000000     3.666000000
H     1.062000000     3.074000000     4.223000000
H     0.945000000     3.745000000     2.872000000
O    -1.378000000    -6.236000000     4.386000000
H    -1.562000000    -5.398000000     3.962000000
H    -0.877000000    -6.728000000     3.736000000
O     4.669000000    -1.156000000    -3.148000000
H     3.947000000    -0.833000000    -3.688000000
H     5.419000000    -1.184000000    -3.742000000
O    -2.984000000    -3.596000000     1.691000000
H    -3.361000000    -4.291000000     2.230000000
H    -3.495000000    -2.818000000     1.911000000
O     2.478000000    -3.279000000    -2.018000000
H     2.646000000    -3.155000000    -1.084000000
H     3.142000000    -2.745000000    -2.454000000
O    -3.508000000     3.245000000    -2.791000000
H    -3.261000000     2.331000000    -2.649000000
H    -3.674000000     3.304000000    -3.732000000
O     0.340000000     6.339000000     1.503000000
H     0.857000000     6.887000000     2.093000000
H    -0.557000000     6.658000000     1.603000000
O     3.468000000    -6.139000000     4.649000000
H     4.298000000    -5.935000000     5.080000000
H     3.689000000    -6.195000000     3.719000000
O    -2.236000000    -3.703000000    -0.892000000
H    -1.568000000    -4.389000000    -0.879000000
H    -2.504000000    -3.613000000     0.022000000
O    -1.240000000    -1.397000000    -2.419000000
H    -1.787000000    -2.124000000    -2.120000000
H    -0.763000000    -1.120000000    -1.637000000
O    -5.755000000     2.257000000     3.381000000
H    -5.194000000     1.988000000     2.653000000
H    -5.372000000     1.832000000     4.148000000
O     3.708000000    -1.020000000     2.915000000
H     3.528000000    -1.786000000     2.369000000
H     2.879000000    -0.842000000     3.359000000
O    -6.148000000     0.388000000     0.510000000
H    -5.464000000     1.028000000     0.315000000
H    -6.960000000     0.814000000     0.236000000
O     5.009000000    -0.787000000    -0.480000000
H     4.997000000    -1.066000000    -1.395000000
H     4.472000000    -1.436000000    -0.024000000
O     4.171000000     1.225000000     1.577000000
H     4.246000000     0.808000000     0.718000000
H     4.237000000     0.502000000     2.200000000
O     0.257000000     7.565000000    -1.298000000
H     0.443000000     6.628000000    -1.240000000
H     1.117000000     7.983000000    -1.269000000
O    -2.340000000    -0.904000000     4.235000000
H    -1.964000000    -1.782000000     4.300000000
H    -2.799000000    -0.900000000     3.396000000
O     3.281000000     5.406000000     1.791000000
H     2.638000000     4.938000000     1.259000000
H     3.609000000     4.749000000     2.405000000
O    -0.863000000     4.977000000    -3.167000000
H    -0.147000000     4.772000000    -2.565000000
H    -1.645000000     4.636000000    -2.733000000
O     2.471000000    -2.989000000     6.557000000
H     2.489000000    -3.610000000     5.829000000
H     2.365000000    -3.536000000     7.336000000
O    -4.241000000     2.151000000    -5.416000000
H    -4.171000000     1.428000000    -4.793000000
H    -5.128000000     2.077000000    -5.770000000
O    -6.560000000     3.187000000    -2.133000000
H    -6.982000000     2.890000000    -2.939000000
H    -5.626000000     3.039000000    -2.283000000
O     0.745000000    -5.234000000    -2.846000000
H     1.347000000    -4.491000000    -2.884000000
H     0.282000000    -5.125000000    -2.015000000
O    -1.074000000    -3.065000000     4.968000000
H    -1.031000000    -3.371000000     5.874000000
H    -0.403000000    -3.572000000     4.511000000
O    -0.055000000    -0.395000000    -4.604000000
H    -0.470000000    -0.776000000    -3.830000000
H    -0.644000000     0.311000000    -4.868000000
O    -2.178000000     2.388000000     3.097000000
H    -2.668000000     2.206000000     3.899000000
H    -1.361000000     2.784000000     3.400000000
O    -4.558000000    -1.218000000     2.244000000
H    -5.317000000    -1.557000000     2.719000000
H    -4.925000000    -0.587000000     1.626000000
