158
-3025.85983
C    -0.080000000    -0.962000000     1.237000000
H    -0.335000000    -1.572000000     2.100000000
C    -0.887000000     0.195000000     0.950000000
H    -1.758000000     0.475000000     1.536000000
C    -0.671000000     1.019000000    -0.156000000
H    -1.276000000     1.886000000    -0.239000000
C     0.285000000     0.644000000    -1.130000000
H     0.481000000     1.267000000    -1.999000000
C     1.094000000    -0.497000000    -0.886000000
H     1.863000000    -0.757000000    -1.609000000
C     0.923000000    -1.282000000     0.285000000
C     1.644000000    -2.560000000     0.387000000
O     1.167000000    -3.476000000     1.066000000
O     2.508000000    -2.922000000    -0.448000000
O     2.580000000     2.757000000    -1.657000000
H     2.774000000     2.261000000    -0.862000000
H     1.732000000     3.166000000    -1.483000000
O    -0.357000000     4.718000000    -0.704000000
H     0.490000000     4.525000000    -0.302000000
H    -0.881000000     5.089000000     0.006000000
O    -4.163000000     0.598000000    -1.979000000
H    -4.975000000     0.198000000    -2.292000000
H    -3.701000000     0.856000000    -2.776000000
O    -2.956000000    -3.250000000     4.159000000
H    -3.503000000    -2.464000000     4.158000000
H    -3.536000000    -3.944000000     4.471000000
O     5.513000000    -5.883000000     1.943000000
H     6.222000000    -5.419000000     1.498000000
H     4.817000000    -5.231000000     2.028000000
O     3.622000000    -3.992000000     2.090000000
H     2.742000000    -4.172000000     1.759000000
H     3.861000000    -3.155000000     1.693000000
O     0.892000000     0.062000000    -4.442000000
H     0.462000000     0.916000000    -4.398000000
H     1.567000000     0.167000000    -5.113000000
O     2.116000000    -5.718000000    -0.709000000
H     1.726000000    -5.872000000     0.151000000
H     2.173000000    -4.765000000    -0.779000000
O     2.001000000     4.473000000     0.682000000
H     1.995000000     5.400000000     0.922000000
H     2.872000000     4.167000000     0.933000000
O     1.024000000    -6.935000000     2.045000000
H     0.944000000    -7.610000000     2.718000000
H     0.720000000    -6.134000000     2.471000000
O    -0.286000000     5.264000000     4.851000000
H    -0.801000000     4.848000000     4.160000000
H    -0.938000000     5.625000000     5.452000000
O     1.514000000     3.759000000     3.553000000
H     1.159000000     4.437000000     4.127000000
H     1.505000000     4.154000000     2.681000000
O     2.844000000    -2.559000000    -5.105000000
H     2.129000000    -2.956000000    -4.608000000
H     2.857000000    -1.646000000    -4.819000000
O    -4.050000000     6.835000000    -0.509000000
H    -3.107000000     6.781000000    -0.357000000
H    -4.172000000     7.670000000    -0.961000000
O    -1.804000000     3.889000000     3.247000000
H    -2.249000000     4.119000000     2.432000000
H    -1.656000000     2.946000000     3.182000000
O     3.967000000    -1.361000000     4.922000000
H     3.979000000    -1.526000000     3.979000000
H     3.182000000    -0.833000000     5.063000000
O    -3.123000000     2.340000000    -5.889000000
H    -3.491000000     1.540000000    -6.264000000
H    -2.307000000     2.057000000    -5.476000000
O     7.473000000    -4.327000000     0.586000000
H     7.910000000    -4.177000000    -0.252000000
H     6.618000000    -3.908000000     0.489000000
O    -3.108000000     4.124000000     0.971000000
H    -3.913000000     3.673000000     0.718000000
H    -3.194000000     4.999000000     0.591000000
O    -0.607000000     2.270000000    -5.090000000
H    -0.865000000     2.835000000    -4.362000000
H     0.042000000     2.781000000    -5.573000000
O     2.496000000     1.272000000     0.998000000
H     3.032000000     0.583000000     1.390000000
H     1.607000000     0.917000000     1.003000000
O     1.217000000    -0.405000000     4.981000000
H     0.464000000    -0.968000000     4.803000000
H     1.134000000    -0.180000000     5.907000000
O     4.848000000     3.487000000    -3.141000000
H     4.004000000     3.379000000    -2.702000000
H     4.942000000     2.699000000    -3.676000000
O    -3.980000000     3.262000000     4.796000000
H    -4.251000000     4.031000000     5.296000000
H    -3.325000000     3.593000000     4.182000000
O     5.089000000    -6.444000000    -1.533000000
H     4.375000000    -6.272000000    -0.919000000
H     4.764000000    -7.154000000    -2.086000000
O     5.584000000    -0.110000000    -0.437000000
H     6.508000000    -0.240000000    -0.651000000
H     5.579000000     0.080000000     0.501000000
O    -3.270000000    -3.423000000     1.450000000
H    -3.309000000    -3.340000000     2.403000000
H    -3.934000000    -2.814000000     1.129000000
O     1.291000000    -3.223000000    -2.921000000
H     1.726000000    -3.258000000    -2.070000000
H     0.940000000    -2.334000000    -2.975000000
O    -5.196000000     2.782000000    -0.535000000
H    -4.839000000     1.919000000    -0.746000000
H    -5.276000000     3.221000000    -1.382000000
O    -1.266000000    -4.169000000    -0.238000000
H    -0.458000000    -3.832000000     0.149000000
H    -1.964000000    -3.768000000     0.280000000
O    -2.178000000    -2.036000000    -2.460000000
H    -2.903000000    -2.535000000    -2.083000000
H    -1.797000000    -1.569000000    -1.717000000
O    -0.144000000    -4.659000000     3.018000000
H     0.415000000    -4.200000000     2.391000000
H    -0.412000000    -3.984000000     3.641000000
O     5.241000000    -2.844000000    -0.346000000
H     5.429000000    -1.945000000    -0.613000000
H     4.291000000    -2.926000000    -0.430000000
O     4.653000000    -0.359000000     2.456000000
H     4.634000000     0.372000000     3.074000000
H     5.399000000    -0.889000000     2.736000000
O    -0.976000000     1.396000000     3.822000000
H    -0.703000000     1.542000000     4.728000000
H    -0.156000000     1.316000000     3.335000000
O     3.021000000     1.465000000     4.111000000
H     2.445000000     0.814000000     4.513000000
H     2.450000000     2.213000000     3.936000000
O    -1.408000000     4.061000000    -3.012000000
H    -0.926000000     3.829000000    -2.218000000
H    -2.024000000     4.737000000    -2.729000000
O    -2.053000000    -6.644000000    -0.526000000
H    -2.224000000    -6.889000000    -1.435000000
H    -1.779000000    -5.728000000    -0.572000000
O    -5.844000000     3.078000000    -3.266000000
H    -6.075000000     2.532000000    -4.018000000
H    -5.160000000     3.661000000    -3.594000000
O    -6.964000000     2.227000000     1.652000000
H    -6.703000000     2.300000000     2.570000000
H    -6.146000000     2.308000000     1.163000000
O    -1.010000000    -4.895000000    -3.301000000
H    -0.314000000    -4.238000000    -3.313000000
H    -1.558000000    -4.649000000    -2.556000000
O    -0.512000000    -2.615000000     5.054000000
H    -0.447000000    -3.036000000     5.911000000
H    -1.381000000    -2.856000000     4.733000000
O    -1.538000000     6.760000000     1.171000000
H    -2.038000000     6.988000000     1.955000000
H    -0.857000000     7.430000000     1.118000000
O     3.144000000     0.643000000    -5.844000000
H     3.692000000     0.766000000    -5.069000000
H     3.352000000     1.389000000    -6.407000000
O    -1.965000000    -0.704000000    -4.930000000
H    -1.925000000    -1.331000000    -4.208000000
H    -1.059000000    -0.625000000    -5.230000000
O    -4.267000000    -0.190000000     4.211000000
H    -4.565000000     0.677000000     4.486000000
H    -3.351000000    -0.061000000     3.964000000
O     6.346000000    -4.045000000    -2.413000000
H     5.916000000    -3.441000000    -1.807000000
H     6.100000000    -4.915000000    -2.099000000
O    -2.000000000    -6.431000000     2.202000000
H    -1.282000000    -5.801000000     2.268000000
H    -2.124000000    -6.555000000     1.261000000
