158
-3024.80584
C    -0.126000000    -0.417000000     1.443000000
H    -0.290000000    -0.562000000     2.508000000
C    -0.118000000     0.881000000     0.949000000
H    -0.234000000     1.753000000     1.589000000
C     0.079000000     1.127000000    -0.393000000
H     0.228000000     2.128000000    -0.658000000
C     0.176000000     0.116000000    -1.304000000
H     0.274000000     0.470000000    -2.327000000
C     0.160000000    -1.198000000    -0.859000000
H     0.280000000    -1.989000000    -1.596000000
C    -0.012000000    -1.474000000     0.531000000
C    -0.263000000    -2.874000000     0.955000000
O    -0.745000000    -3.102000000     2.031000000
O     0.239000000    -3.773000000     0.307000000
O     2.948000000    -3.956000000     0.341000000
H     3.072000000    -4.703000000     0.927000000
H     2.005000000    -3.793000000     0.355000000
O     0.505000000     6.586000000     2.426000000
H     0.304000000     5.657000000     2.537000000
H    -0.049000000     6.865000000     1.697000000
O     0.380000000    -0.194000000     4.767000000
H     0.909000000    -0.869000000     4.341000000
H    -0.152000000    -0.673000000     5.403000000
O    -2.209000000    -6.942000000     4.425000000
H    -3.125000000    -7.037000000     4.165000000
H    -1.968000000    -6.063000000     4.135000000
O    -4.634000000    -4.314000000     4.727000000
H    -4.821000000    -5.165000000     4.330000000
H    -3.694000000    -4.190000000     4.596000000
O    -1.959000000    -3.626000000     4.512000000
H    -1.838000000    -3.200000000     5.360000000
H    -1.149000000    -3.444000000     4.035000000
O    -1.513000000    -5.665000000     1.814000000
H    -0.670000000    -6.114000000     1.749000000
H    -1.284000000    -4.742000000     1.924000000
O    -0.588000000    -5.147000000    -1.995000000
H     0.235000000    -5.136000000    -2.483000000
H    -0.504000000    -4.428000000    -1.368000000
O    -5.774000000    -3.399000000     0.832000000
H    -6.475000000    -3.989000000     1.111000000
H    -4.969000000    -3.888000000     1.001000000
O     3.428000000    -2.184000000    -3.554000000
H     3.762000000    -1.842000000    -2.725000000
H     3.121000000    -1.409000000    -4.026000000
O    -3.938000000     5.537000000    -0.478000000
H    -4.011000000     5.397000000    -1.422000000
H    -4.840000000     5.663000000    -0.184000000
O    -3.710000000     5.385000000    -3.156000000
H    -4.050000000     4.981000000    -3.954000000
H    -3.921000000     6.314000000    -3.248000000
O    -1.236000000     6.321000000    -0.047000000
H    -0.964000000     5.435000000    -0.287000000
H    -2.192000000     6.283000000    -0.034000000
O     2.071000000     1.846000000     3.969000000
H     1.382000000     1.455000000     4.506000000
H     2.425000000     1.114000000     3.464000000
O     1.618000000     4.097000000    -2.514000000
H     0.812000000     4.252000000    -2.020000000
H     1.344000000     3.557000000    -3.256000000
O     6.113000000     1.363000000    -2.273000000
H     5.191000000     1.576000000    -2.414000000
H     6.252000000     1.507000000    -1.337000000
O    -4.134000000     2.115000000     0.128000000
H    -4.855000000     2.733000000     0.012000000
H    -3.433000000     2.636000000     0.520000000
O     0.671000000     2.535000000    -4.360000000
H     0.346000000     3.050000000    -5.099000000
H    -0.106000000     2.099000000    -4.011000000
O     3.931000000     3.844000000     1.704000000
H     3.601000000     4.071000000     0.835000000
H     3.590000000     4.532000000     2.276000000
O     1.405000000    -3.336000000     3.520000000
H     1.196000000    -3.830000000     4.312000000
H     0.812000000    -3.687000000     2.855000000
O     4.911000000     1.607000000     0.599000000
H     4.456000000     2.423000000     0.811000000
H     4.209000000     0.987000000     0.399000000
O    -1.632000000    -8.265000000    -0.767000000
H    -0.994000000    -7.564000000    -0.633000000
H    -2.214000000    -7.931000000    -1.450000000
O    -2.028000000     1.386000000     4.314000000
H    -2.382000000     1.591000000     5.179000000
H    -1.166000000     1.009000000     4.491000000
O    -3.306000000    -2.578000000     2.403000000
H    -2.402000000    -2.595000000     2.089000000
H    -3.236000000    -2.739000000     3.344000000
O    -2.198000000     3.184000000     1.953000000
H    -2.466000000     2.349000000     2.336000000
H    -1.458000000     3.467000000     2.490000000
O    -3.712000000    -5.658000000     0.354000000
H    -3.446000000    -5.238000000    -0.464000000
H    -2.979000000    -5.505000000     0.950000000
O     1.212000000    -6.727000000     0.655000000
H     0.808000000    -5.987000000     0.203000000
H     2.153000000    -6.587000000     0.551000000
O     4.027000000     4.404000000    -1.031000000
H     3.337000000     4.632000000    -1.654000000
H     4.715000000     4.012000000    -1.569000000
O    -4.298000000    -0.055000000     3.080000000
H    -3.448000000     0.114000000     3.486000000
H    -4.156000000    -0.834000000     2.542000000
O     4.381000000    -1.852000000    -1.046000000
H     3.875000000    -1.169000000    -0.606000000
H     4.153000000    -2.657000000    -0.581000000
O    -1.274000000    -1.487000000     6.621000000
H    -0.930000000    -2.212000000     7.143000000
H    -1.881000000    -1.036000000     7.208000000
O    -3.137000000    -4.301000000    -2.642000000
H    -2.201000000    -4.470000000    -2.529000000
H    -3.176000000    -3.427000000    -3.031000000
O    -2.838000000     0.106000000    -1.213000000
H    -2.082000000     0.149000000    -0.627000000
H    -3.309000000     0.925000000    -1.056000000
O     2.999000000    -0.718000000     3.330000000
H     2.736000000    -1.537000000     2.910000000
H     3.117000000    -0.949000000     4.251000000
O     3.444000000     2.301000000    -2.970000000
H     3.014000000     1.691000000    -3.570000000
H     2.760000000     2.929000000    -2.738000000
O     2.692000000    -0.129000000     0.194000000
H     2.524000000    -0.161000000     1.136000000
H     1.868000000     0.176000000    -0.186000000
O    -1.206000000     4.335000000    -2.121000000
H    -1.978000000     3.793000000    -2.283000000
H    -1.244000000     5.014000000    -2.795000000
O    -4.425000000     2.366000000    -3.482000000
H    -4.992000000     2.859000000    -2.890000000
H    -5.011000000     1.743000000    -3.912000000
O     1.257000000    -4.881000000     5.833000000
H     1.599000000    -5.775000000     5.844000000
H     0.420000000    -4.939000000     6.295000000
O     0.040000000     3.644000000     3.667000000
H     0.813000000     3.080000000     3.673000000
H     0.055000000     4.079000000     4.520000000
O    -3.670000000    -1.664000000    -3.370000000
H    -3.447000000    -1.087000000    -2.639000000
H    -4.611000000    -1.539000000    -3.494000000
O     2.502000000     0.291000000    -4.566000000
H     1.765000000     0.901000000    -4.548000000
H     2.868000000     0.384000000    -5.446000000
O    -2.303000000    -0.441000000    -6.340000000
H    -2.742000000    -0.499000000    -5.492000000
H    -1.547000000    -1.023000000    -6.259000000
O    -1.917000000     1.580000000    -3.589000000
H    -2.814000000     1.913000000    -3.606000000
H    -1.807000000     1.233000000    -2.704000000
O    -0.454000000    -4.400000000    -5.480000000
H    -0.029000000    -4.558000000    -4.637000000
H    -0.119000000    -3.549000000    -5.761000000
O     1.911000000    -4.860000000    -2.911000000
H     2.656000000    -5.369000000    -3.231000000
H     2.251000000    -3.970000000    -2.820000000
O     0.079000000     6.569000000    -3.793000000
H     0.883000000     6.946000000    -4.151000000
H     0.130000000     6.745000000    -2.853000000
O    -3.166000000     6.081000000     2.385000000
H    -2.696000000     5.572000000     1.724000000
H    -4.065000000     5.752000000     2.345000000
