158
-3048.88014
C     0.686000000    -1.114000000     0.607000000
H     1.289000000    -1.871000000     1.102000000
C     1.277000000    -0.163000000    -0.181000000
H     2.341000000    -0.290000000    -0.363000000
C     0.510000000     0.926000000    -0.715000000
H     0.955000000     1.723000000    -1.254000000
C    -0.853000000     0.936000000    -0.413000000
H    -1.455000000     1.745000000    -0.818000000
C    -1.430000000    -0.116000000     0.309000000
H    -2.485000000    -0.014000000     0.549000000
C    -0.674000000    -1.167000000     0.839000000
C    -1.254000000    -2.271000000     1.759000000
O    -2.395000000    -2.236000000     2.208000000
O    -0.535000000    -3.172000000     2.164000000
O     1.200000000    -0.749000000    -4.664000000
H     0.772000000    -1.263000000    -3.979000000
H     1.925000000    -1.300000000    -4.959000000
O    -3.896000000    -1.272000000    -3.328000000
H    -4.085000000    -1.819000000    -2.565000000
H    -4.525000000    -0.553000000    -3.267000000
O    -0.997000000     3.968000000     2.294000000
H    -1.768000000     4.437000000     1.975000000
H    -0.261000000     4.542000000     2.079000000
O    -4.383000000     4.963000000    -0.855000000
H    -4.057000000     5.783000000    -1.227000000
H    -4.213000000     4.308000000    -1.533000000
O     5.154000000     2.325000000     0.779000000
H     5.432000000     2.785000000    -0.013000000
H     4.777000000     1.505000000     0.459000000
O    -1.930000000    -3.746000000     6.410000000
H    -2.645000000    -4.364000000     6.562000000
H    -2.291000000    -3.108000000     5.795000000
O     4.478000000    -2.781000000     5.480000000
H     5.385000000    -2.901000000     5.197000000
H     3.971000000    -2.787000000     4.669000000
O    -4.325000000     3.769000000    -3.584000000
H    -4.499000000     2.853000000    -3.368000000
H    -4.957000000     3.977000000    -4.272000000
O    -0.496000000    -1.798000000    -2.577000000
H    -0.320000000    -1.170000000    -1.877000000
H    -1.353000000    -1.541000000    -2.919000000
O    -0.191000000    -5.023000000     4.437000000
H    -0.762000000    -4.713000000     5.140000000
H    -0.287000000    -4.370000000     3.745000000
O    -3.784000000    -3.086000000     4.199000000
H    -3.128000000    -2.783000000     3.572000000
H    -4.388000000    -2.349000000     4.289000000
O     3.049000000    -0.265000000     3.136000000
H     2.428000000     0.440000000     2.950000000
H     2.576000000    -1.066000000     2.911000000
O    -5.704000000     1.695000000     1.865000000
H    -4.790000000     1.572000000     2.120000000
H    -5.821000000     2.645000000     1.845000000
O     1.800000000     4.165000000    -1.108000000
H     2.334000000     3.507000000    -1.555000000
H     2.149000000     5.003000000    -1.413000000
O     1.335000000     1.904000000    -5.419000000
H     0.407000000     2.135000000    -5.442000000
H     1.355000000     1.030000000    -5.029000000
O     5.919000000     0.454000000    -1.352000000
H     5.784000000    -0.310000000    -0.792000000
H     5.739000000     0.138000000    -2.237000000
O     1.321000000    -4.240000000     0.394000000
H     0.634000000    -3.893000000     0.964000000
H     1.335000000    -5.178000000     0.580000000
O    -1.543000000    -5.405000000     1.457000000
H    -1.162000000    -4.620000000     1.851000000
H    -2.412000000    -5.129000000     1.165000000
O     5.455000000     0.324000000    -4.272000000
H     5.915000000     0.253000000    -5.109000000
H     4.968000000    -0.497000000    -4.196000000
O     2.157000000     3.235000000     3.767000000
H     1.543000000     2.816000000     3.165000000
H     1.925000000     2.885000000     4.628000000
O     2.896000000    -5.216000000     3.681000000
H     2.461000000    -4.365000000     3.735000000
H     2.300000000    -5.818000000     4.126000000
O    -1.285000000     2.495000000    -5.195000000
H    -1.516000000     1.836000000    -5.849000000
H    -2.011000000     2.479000000    -4.572000000
O    -3.175000000     1.245000000     2.709000000
H    -2.258000000     1.171000000     2.445000000
H    -3.189000000     0.943000000     3.617000000
O    -3.310000000    -7.307000000     3.638000000
H    -2.577000000    -7.630000000     4.162000000
H    -2.897000000    -6.876000000     2.889000000
O    -3.330000000     5.139000000     1.665000000
H    -3.874000000     5.789000000     2.111000000
H    -3.777000000     4.983000000     0.833000000
O     6.276000000    -2.495000000    -1.202000000
H     6.812000000    -3.265000000    -1.391000000
H     5.664000000    -2.789000000    -0.527000000
O     1.116000000     5.273000000     1.379000000
H     1.267000000     4.625000000     0.691000000
H     1.851000000     5.881000000     1.301000000
O    -0.675000000     5.197000000    -5.687000000
H    -0.688000000     4.274000000    -5.433000000
H    -1.561000000     5.509000000    -5.502000000
O     4.145000000     4.243000000     2.285000000
H     4.598000000     3.667000000     1.670000000
H     3.412000000     3.719000000     2.608000000
O    -4.821000000    -5.008000000     5.797000000
H    -5.503000000    -5.590000000     5.462000000
H    -4.658000000    -4.394000000     5.080000000
O    -5.401000000    -0.585000000     3.693000000
H    -5.031000000     0.151000000     3.206000000
H    -5.479000000    -0.263000000     4.591000000
O    -4.296000000    -5.136000000     1.198000000
H    -5.158000000    -5.439000000     0.910000000
H    -4.397000000    -4.189000000     1.297000000
O     0.549000000    -2.489000000     6.517000000
H     1.183000000    -3.035000000     6.981000000
H    -0.284000000    -2.948000000     6.620000000
O     0.735000000    -7.413000000     3.597000000
H     0.557000000    -7.349000000     2.659000000
H     0.500000000    -6.553000000     3.945000000
O     0.950000000    -4.383000000    -2.534000000
H     1.572000000    -4.270000000    -1.815000000
H     0.429000000    -3.580000000    -2.528000000
O    -4.961000000    -2.448000000     1.689000000
H    -5.342000000    -1.943000000     2.407000000
H    -4.016000000    -2.357000000     1.806000000
O     2.780000000     7.172000000     0.427000000
H     2.842000000     8.115000000     0.278000000
H     2.560000000     6.808000000    -0.431000000
O    -5.039000000    -2.549000000    -1.187000000
H    -5.959000000    -2.768000000    -1.335000000
H    -4.993000000    -2.320000000    -0.259000000
O     4.872000000    -0.558000000     1.026000000
H     4.777000000    -1.490000000     0.831000000
H     4.491000000    -0.456000000     1.899000000
O     1.600000000    -2.872000000     3.688000000
H     1.254000000    -2.956000000     4.577000000
H     0.833000000    -2.959000000     3.123000000
O     0.322000000     1.673000000     2.545000000
H     0.209000000     1.237000000     1.701000000
H    -0.173000000     2.488000000     2.462000000
O    -7.266000000     0.581000000     0.018000000
H    -6.746000000     1.170000000     0.565000000
H    -8.147000000     0.954000000     0.035000000
O     2.554000000     6.549000000    -2.124000000
H     3.359000000     6.180000000    -2.489000000
H     2.009000000     6.736000000    -2.888000000
O     3.987000000    -3.209000000     0.565000000
H     3.060000000    -3.411000000     0.438000000
H     4.359000000    -4.010000000     0.935000000
O     0.555000000    -7.145000000     0.927000000
H    -0.316000000    -6.746000000     0.937000000
H     0.531000000    -7.753000000     0.188000000
O     2.597000000     4.470000000    -6.736000000
H     2.153000000     3.736000000    -6.312000000
H     1.914000000     4.896000000    -7.254000000
O    -6.001000000     0.277000000    -2.810000000
H    -6.233000000     0.261000000    -1.882000000
H    -6.796000000    -0.010000000    -3.260000000
O     4.183000000     2.882000000    -3.153000000
H     4.586000000     2.070000000    -3.461000000
H     3.449000000     3.026000000    -3.749000000
