158
-3047.93621
C    -0.381000000    -0.681000000     1.215000000
H    -0.684000000    -1.035000000     2.197000000
C    -0.370000000     0.701000000     1.020000000
H    -0.678000000     1.346000000     1.839000000
C    -0.060000000     1.169000000    -0.222000000
H    -0.185000000     2.200000000    -0.380000000
C     0.532000000     0.362000000    -1.163000000
H     0.850000000     0.725000000    -2.137000000
C     0.520000000    -1.024000000    -0.972000000
H     0.798000000    -1.678000000    -1.795000000
C    -0.012000000    -1.572000000     0.221000000
C     0.000000000    -3.029000000     0.448000000
O    -0.443000000    -3.481000000     1.477000000
O     0.749000000    -3.669000000    -0.318000000
O     2.911000000     6.176000000    -0.424000000
H     2.761000000     6.897000000    -1.036000000
H     2.498000000     6.464000000     0.390000000
O     4.018000000    -0.618000000    -0.896000000
H     4.124000000    -1.057000000    -1.741000000
H     4.826000000    -0.814000000    -0.422000000
O     0.639000000     4.615000000    -1.340000000
H     1.247000000     5.350000000    -1.257000000
H    -0.006000000     4.758000000    -0.647000000
O     1.176000000     7.545000000     1.392000000
H     1.053000000     7.117000000     2.239000000
H     0.916000000     8.454000000     1.542000000
O     1.491000000    -6.428000000    -1.426000000
H     1.453000000    -5.535000000    -1.084000000
H     1.753000000    -6.961000000    -0.675000000
O     5.224000000    -2.537000000     1.057000000
H     4.793000000    -2.221000000     1.851000000
H     4.506000000    -2.750000000     0.462000000
O     3.007000000    -0.895000000    -3.529000000
H     2.872000000    -0.318000000    -4.281000000
H     2.557000000    -0.456000000    -2.807000000
O    -3.539000000     2.634000000     2.030000000
H    -3.376000000     2.466000000     1.102000000
H    -4.419000000     3.011000000     2.054000000
O    -0.390000000    -1.568000000    -6.371000000
H     0.363000000    -2.157000000    -6.424000000
H    -0.785000000    -1.760000000    -5.520000000
O     1.924000000    -5.373000000     1.804000000
H     2.652000000    -5.122000000     1.235000000
H     1.167000000    -4.914000000     1.440000000
O     1.977000000     5.047000000     3.271000000
H     1.115000000     4.792000000     3.600000000
H     2.394000000     5.490000000     4.010000000
O    -0.031000000     3.588000000     5.715000000
H    -0.136000000     2.669000000     5.963000000
H     0.777000000     3.861000000     6.149000000
O    -1.592000000    -2.539000000    -4.148000000
H    -1.109000000    -3.128000000    -3.569000000
H    -2.302000000    -2.198000000    -3.604000000
O     2.304000000     0.586000000    -5.837000000
H     1.355000000     0.560000000    -5.717000000
H     2.466000000     1.416000000    -6.285000000
O     0.867000000     6.743000000    -3.986000000
H    -0.013000000     6.371000000    -4.046000000
H     0.920000000     7.090000000    -3.096000000
O     3.992000000    -1.537000000     3.187000000
H     3.164000000    -1.964000000     3.405000000
H     3.737000000    -0.674000000     2.860000000
O     1.711000000    -2.600000000     4.614000000
H     1.472000000    -1.700000000     4.396000000
H     1.939000000    -2.569000000     5.544000000
O     1.570000000     2.620000000    -3.174000000
H     1.054000000     3.163000000    -2.578000000
H     2.135000000     3.240000000    -3.635000000
O     4.300000000     3.810000000     2.052000000
H     4.934000000     4.322000000     2.554000000
H     3.459000000     4.233000000     2.224000000
O    -0.321000000     2.006000000    -4.971000000
H    -0.901000000     2.740000000    -4.772000000
H     0.520000000     2.254000000    -4.587000000
O    -0.113000000     0.404000000     6.818000000
H     0.251000000     0.176000000     5.962000000
H     0.119000000    -0.335000000     7.381000000
O    -3.409000000     5.386000000    -2.849000000
H    -2.790000000     6.098000000    -3.010000000
H    -4.170000000     5.815000000    -2.457000000
O    -4.245000000    -6.844000000     2.501000000
H    -3.505000000    -6.305000000     2.224000000
H    -4.308000000    -6.698000000     3.445000000
O     3.417000000    -3.975000000    -0.422000000
H     3.674000000    -3.671000000    -1.293000000
H     2.576000000    -3.549000000    -0.258000000
O    -3.180000000    -1.697000000     3.526000000
H    -3.794000000    -2.373000000     3.812000000
H    -2.324000000    -2.012000000     3.818000000
O    -1.715000000    -5.748000000     2.221000000
H    -1.122000000    -6.455000000     2.475000000
H    -1.161000000    -4.969000000     2.191000000
O     0.046000000    -4.253000000    -2.824000000
H     0.293000000    -3.871000000    -1.982000000
H     0.836000000    -4.183000000    -3.360000000
O     3.333000000     0.758000000     1.662000000
H     3.108000000     0.541000000     0.758000000
H     3.524000000     1.696000000     1.643000000
O    -0.990000000    -3.384000000     4.083000000
H    -0.930000000    -3.220000000     3.142000000
H    -0.117000000    -3.181000000     4.418000000
O    -3.089000000    -5.050000000    -0.490000000
H    -2.689000000    -4.862000000     0.359000000
H    -2.738000000    -4.377000000    -1.073000000
O    -5.738000000     0.495000000    -0.970000000
H    -5.235000000    -0.158000000    -0.483000000
H    -5.353000000     1.333000000    -0.715000000
O     3.612000000    -7.026000000    -3.138000000
H     3.704000000    -6.413000000    -3.867000000
H     2.794000000    -6.770000000    -2.712000000
O     1.354000000     0.112000000     4.071000000
H     2.113000000     0.357000000     4.601000000
H     1.355000000     0.738000000     3.347000000
O    -1.770000000     7.578000000     1.157000000
H    -1.285000000     6.781000000     0.940000000
H    -1.111000000     8.272000000     1.138000000
O    -0.936000000     4.740000000     3.459000000
H    -0.568000000     4.133000000     4.102000000
H    -1.870000000     4.773000000     3.668000000
O    -3.587000000     1.169000000     4.358000000
H    -3.392000000     1.552000000     3.503000000
H    -3.350000000     0.246000000     4.267000000
O     2.699000000    -3.861000000    -3.493000000
H     2.517000000    -2.931000000    -3.627000000
H     3.238000000    -4.111000000    -4.244000000
O     3.958000000     1.932000000    -1.794000000
H     4.132000000     1.023000000    -1.551000000
H     3.084000000     1.914000000    -2.183000000
O    -3.481000000     2.754000000    -0.775000000
H    -3.069000000     2.192000000    -1.431000000
H    -3.952000000     3.413000000    -1.285000000
O    -2.038000000     0.909000000    -2.947000000
H    -1.662000000     0.340000000    -2.275000000
H    -1.387000000     0.912000000    -3.649000000
O    -1.339000000    -6.744000000    -2.117000000
H    -2.003000000    -6.317000000    -1.576000000
H    -0.561000000    -6.194000000    -2.022000000
O    -1.671000000    -5.679000000     5.462000000
H    -2.604000000    -5.781000000     5.274000000
H    -1.372000000    -5.017000000     4.838000000
O    -1.169000000     4.380000000    -4.036000000
H    -1.994000000     4.671000000    -3.647000000
H    -0.511000000     4.558000000    -3.364000000
O    -4.535000000    -1.270000000     0.693000000
H    -5.280000000    -1.803000000     0.973000000
H    -3.953000000    -1.254000000     1.453000000
O    -3.544000000     3.904000000     5.003000000
H    -3.411000000     3.054000000     4.585000000
H    -4.184000000     3.733000000     5.694000000
O     2.222000000    -6.318000000     4.311000000
H     2.857000000    -5.643000000     4.550000000
H     1.983000000    -6.113000000     3.407000000
O    -3.606000000    -2.141000000    -2.251000000
H    -4.410000000    -1.733000000    -2.573000000
H    -3.652000000    -2.043000000    -1.300000000
O    -1.023000000     4.910000000     0.845000000
H    -1.649000000     4.206000000     0.673000000
H    -0.773000000     4.790000000     1.761000000
