158
-3041.91491
C    -0.542000000    -1.003000000     0.967000000
H    -1.104000000    -1.768000000     1.496000000
C    -1.245000000     0.110000000     0.423000000
H    -2.289000000     0.363000000     0.590000000
C    -0.537000000     1.031000000    -0.348000000
H    -1.143000000     1.862000000    -0.595000000
C     0.793000000     0.863000000    -0.648000000
H     1.244000000     1.558000000    -1.352000000
C     1.477000000    -0.291000000    -0.148000000
H     2.460000000    -0.534000000    -0.544000000
C     0.799000000    -1.236000000     0.736000000
C     1.442000000    -2.508000000     1.127000000
O     0.653000000    -3.420000000     1.450000000
O     2.606000000    -2.713000000     0.951000000
O     2.668000000    -3.006000000    -1.793000000
H     2.453000000    -2.666000000    -0.925000000
H     2.054000000    -3.728000000    -1.927000000
O    -4.979000000     2.502000000    -1.464000000
H    -4.659000000     2.815000000    -0.617000000
H    -4.889000000     1.551000000    -1.417000000
O     5.201000000     0.313000000     2.639000000
H     4.312000000    -0.040000000     2.593000000
H     5.712000000    -0.246000000     2.054000000
O    -4.582000000    -2.358000000     1.877000000
H    -4.547000000    -2.797000000     1.027000000
H    -5.329000000    -1.762000000     1.808000000
O    -4.108000000     2.065000000    -5.420000000
H    -4.051000000     3.014000000    -5.308000000
H    -3.261000000     1.737000000    -5.118000000
O     6.856000000    -2.825000000     3.511000000
H     6.832000000    -2.088000000     4.121000000
H     5.977000000    -3.201000000     3.556000000
O     1.181000000    -6.698000000     5.053000000
H     0.960000000    -5.790000000     4.848000000
H     0.595000000    -7.218000000     4.502000000
O     3.766000000     3.076000000    -2.946000000
H     4.246000000     3.598000000    -3.589000000
H     4.026000000     2.173000000    -3.130000000
O    -1.502000000     5.261000000    -0.561000000
H    -1.101000000     5.721000000    -1.298000000
H    -2.037000000     4.578000000    -0.967000000
O    -1.822000000    -4.258000000    -1.810000000
H    -1.845000000    -3.321000000    -2.006000000
H    -1.830000000    -4.303000000    -0.854000000
O     4.042000000    -3.439000000     3.495000000
H     3.723000000    -3.562000000     2.601000000
H     3.801000000    -2.538000000     3.714000000
O     2.625000000     6.258000000    -0.166000000
H     1.942000000     5.844000000    -0.694000000
H     3.423000000     5.779000000    -0.389000000
O     3.826000000    -6.239000000     0.261000000
H     4.296000000    -5.940000000     1.039000000
H     2.926000000    -5.941000000     0.396000000
O    -3.549000000     4.701000000    -4.942000000
H    -3.348000000     4.828000000    -4.014000000
H    -2.698000000     4.552000000    -5.353000000
O    -1.447000000     1.767000000    -3.953000000
H    -0.574000000     1.878000000    -4.330000000
H    -1.494000000     0.838000000    -3.729000000
O     6.586000000    -2.908000000    -1.949000000
H     5.711000000    -2.924000000    -2.339000000
H     6.429000000    -2.759000000    -1.017000000
O    -0.367000000     6.104000000    -2.702000000
H    -0.610000000     6.642000000    -3.456000000
H     0.333000000     5.538000000    -3.028000000
O     1.169000000     2.421000000    -4.997000000
H     1.793000000     3.140000000    -5.096000000
H     1.707000000     1.670000000    -4.747000000
O     3.613000000     2.700000000     1.722000000
H     4.204000000     1.960000000     1.860000000
H     3.989000000     3.171000000     0.979000000
O     3.323000000    -1.009000000     4.339000000
H     3.344000000    -0.095000000     4.622000000
H     2.526000000    -1.363000000     4.733000000
O    -0.971000000     3.086000000     4.240000000
H    -0.313000000     2.685000000     3.674000000
H    -0.493000000     3.763000000     4.720000000
O     4.761000000     0.554000000    -3.249000000
H     5.526000000     0.190000000    -3.696000000
H     4.945000000     0.427000000    -2.318000000
O    -4.781000000     6.527000000     0.939000000
H    -4.879000000     6.471000000    -0.011000000
H    -3.878000000     6.255000000     1.104000000
O    -1.582000000    -1.587000000    -2.282000000
H    -2.487000000    -1.277000000    -2.252000000
H    -1.158000000    -1.160000000    -1.537000000
O     4.248000000     4.203000000    -0.514000000
H     5.080000000     4.517000000    -0.868000000
H     3.948000000     3.551000000    -1.147000000
O     0.438000000    -3.889000000     4.139000000
H     0.606000000    -2.980000000     4.388000000
H     0.366000000    -3.866000000     3.184000000
O    -2.638000000     5.410000000     1.936000000
H    -1.979000000     5.308000000     1.249000000
H    -2.145000000     5.714000000     2.698000000
O     1.519000000    -5.808000000    -2.341000000
H     1.499000000    -6.666000000    -2.765000000
H     0.659000000    -5.724000000    -1.929000000
O     0.825000000     1.566000000     2.432000000
H     0.393000000     1.078000000     1.731000000
H     1.538000000     2.033000000     1.995000000
O     1.495000000    -5.799000000     1.305000000
H     1.413000000    -4.854000000     1.427000000
H     0.979000000    -6.178000000     2.017000000
O    -3.142000000    -6.860000000     1.113000000
H    -2.551000000    -6.163000000     0.830000000
H    -2.567000000    -7.520000000     1.499000000
O    -2.926000000    -4.275000000     3.488000000
H    -3.583000000    -4.633000000     2.890000000
H    -3.354000000    -3.518000000     3.888000000
O     4.035000000    -4.168000000     5.996000000
H     3.983000000    -4.028000000     5.050000000
H     4.970000000    -4.109000000     6.196000000
O    -5.918000000    -0.202000000    -0.443000000
H    -6.340000000    -0.441000000     0.382000000
H    -6.642000000     0.044000000    -1.019000000
O    -0.790000000     4.263000000    -5.941000000
H    -0.046000000     3.695000000    -5.744000000
H    -0.407000000     5.006000000    -6.407000000
O     5.175000000    -2.242000000     0.492000000
H     5.674000000    -3.049000000     0.623000000
H     4.263000000    -2.500000000     0.631000000
O    -0.674000000    -6.884000000     2.936000000
H    -1.200000000    -6.084000000     2.963000000
H    -1.255000000    -7.564000000     3.278000000
O    -4.001000000    -0.322000000    -2.446000000
H    -4.639000000    -0.397000000    -1.736000000
H    -4.531000000    -0.172000000    -3.229000000
O    -3.423000000     1.842000000     3.284000000
H    -3.285000000     1.111000000     3.887000000
H    -2.716000000     2.455000000     3.485000000
O    -2.777000000     3.623000000    -2.518000000
H    -2.138000000     3.073000000    -2.972000000
H    -3.501000000     3.031000000    -2.313000000
O     0.634000000    -1.161000000     5.041000000
H     0.082000000    -0.790000000     5.729000000
H     0.415000000    -0.654000000     4.259000000
O     2.052000000     5.380000000    -3.085000000
H     2.845000000     5.871000000    -3.301000000
H     2.365000000     4.498000000    -2.882000000
O     5.783000000     0.251000000    -0.773000000
H     6.708000000     0.102000000    -0.968000000
H     5.490000000    -0.564000000    -0.366000000
O    -1.236000000    -4.631000000     6.312000000
H    -0.609000000    -4.225000000     5.713000000
H    -2.085000000    -4.514000000     5.886000000
O     2.078000000     0.042000000    -3.722000000
H     1.945000000    -0.661000000    -3.086000000
H     3.014000000     0.239000000    -3.669000000
O     3.587000000    -2.430000000    -4.641000000
H     3.343000000    -2.309000000    -3.723000000
H     3.397000000    -3.351000000    -4.820000000
O    -1.576000000    -4.495000000     0.860000000
H    -2.178000000    -4.089000000     1.484000000
H    -0.707000000    -4.223000000     1.153000000
O    -4.196000000     2.842000000     1.016000000
H    -3.926000000     2.256000000     1.724000000
H    -3.727000000     3.658000000     1.189000000
