158
-3010.64848
C    -0.272000000    -0.485000000     1.417000000
H    -0.702000000    -0.807000000     2.363000000
C    -1.192000000    -0.182000000     0.400000000
H    -2.260000000    -0.321000000     0.547000000
C    -0.837000000     0.333000000    -0.813000000
H    -1.567000000     0.569000000    -1.602000000
C     0.526000000     0.504000000    -1.087000000
H     0.808000000     0.879000000    -2.068000000
C     1.472000000     0.104000000    -0.144000000
H     2.497000000     0.332000000    -0.424000000
C     1.051000000    -0.436000000     1.091000000
C     2.063000000    -0.912000000     2.077000000
O     1.711000000    -1.799000000     2.868000000
O     3.251000000    -0.518000000     2.048000000
O     3.531000000    -4.117000000     0.172000000
H     3.467000000    -3.162000000     0.173000000
H     4.257000000    -4.309000000     0.765000000
O    -3.324000000     2.183000000     1.240000000
H    -2.940000000     1.904000000     2.071000000
H    -4.269000000     2.123000000     1.381000000
O    -1.123000000    -3.077000000    -6.290000000
H    -0.617000000    -3.037000000    -7.102000000
H    -1.870000000    -2.499000000    -6.445000000
O     0.246000000    -2.757000000     7.304000000
H     0.156000000    -1.899000000     6.889000000
H    -0.027000000    -3.379000000     6.629000000
O    -2.368000000    -0.320000000    -5.477000000
H    -2.209000000     0.012000000    -6.361000000
H    -3.251000000    -0.686000000    -5.513000000
O     5.367000000     2.948000000     2.578000000
H     5.191000000     2.301000000     1.895000000
H     4.868000000     2.640000000     3.334000000
O    -5.308000000     1.019000000     3.167000000
H    -5.815000000     1.777000000     3.458000000
H    -5.954000000     0.316000000     3.086000000
O     4.854000000    -1.068000000    -1.386000000
H     5.668000000    -1.539000000    -1.568000000
H     4.355000000    -1.129000000    -2.200000000
O     2.438000000     3.238000000     1.049000000
H     3.145000000     2.614000000     0.887000000
H     1.642000000     2.705000000     1.041000000
O     7.331000000     1.720000000    -0.145000000
H     7.679000000     2.038000000     0.688000000
H     6.390000000     1.632000000     0.007000000
O     3.175000000    -6.895000000     3.162000000
H     2.261000000    -7.173000000     3.101000000
H     3.128000000    -5.947000000     3.287000000
O     2.926000000     4.031000000    -5.050000000
H     2.713000000     3.115000000    -5.226000000
H     2.100000000     4.417000000    -4.756000000
O    -4.385000000    -2.205000000    -5.159000000
H    -4.434000000    -2.845000000    -5.869000000
H    -4.007000000    -2.689000000    -4.425000000
O    -2.335000000    -1.831000000    -3.046000000
H    -2.778000000    -1.214000000    -2.463000000
H    -2.022000000    -1.293000000    -3.772000000
O     2.796000000    -4.225000000     3.592000000
H     2.059000000    -4.363000000     4.187000000
H     2.670000000    -3.338000000     3.256000000
O     4.304000000    -0.292000000     6.150000000
H     4.719000000    -1.097000000     5.842000000
H     3.765000000    -0.570000000     6.891000000
O    -1.225000000     5.255000000    -1.449000000
H    -1.816000000     5.707000000    -0.847000000
H    -1.746000000     4.530000000    -1.796000000
O    -5.813000000     3.620000000    -1.978000000
H    -6.504000000     4.078000000    -2.456000000
H    -5.743000000     4.092000000    -1.148000000
O     0.581000000     5.161000000    -4.017000000
H     0.383000000     4.225000000    -4.028000000
H     0.389000000     5.436000000    -3.120000000
O    -4.061000000    -0.231000000    -1.722000000
H    -4.906000000    -0.285000000    -2.170000000
H    -4.274000000    -0.340000000    -0.796000000
O     7.228000000    -0.711000000     3.935000000
H     6.324000000    -1.003000000     4.049000000
H     7.528000000    -1.160000000     3.144000000
O     4.645000000    -2.161000000     3.947000000
H     4.399000000    -3.085000000     3.903000000
H     4.038000000    -1.722000000     3.351000000
O    -2.934000000     2.354000000     4.100000000
H    -2.695000000     3.280000000     4.121000000
H    -3.807000000     2.322000000     4.492000000
O     0.112000000    -2.483000000    -1.905000000
H    -0.745000000    -2.551000000    -2.325000000
H     0.206000000    -1.552000000    -1.703000000
O     0.700000000    -0.927000000     5.408000000
H    -0.173000000    -0.706000000     5.082000000
H     1.192000000    -1.177000000     4.626000000
O     7.785000000    -1.434000000     0.771000000
H     7.445000000    -0.594000000     0.461000000
H     7.694000000    -2.020000000     0.020000000
O    -5.413000000    -0.981000000     0.561000000
H    -5.223000000    -0.155000000     1.006000000
H    -5.693000000    -1.571000000     1.261000000
O     0.421000000     1.794000000     6.595000000
H     1.092000000     1.915000000     7.267000000
H     0.410000000     0.850000000     6.436000000
O    -2.563000000    -5.609000000    -0.253000000
H    -2.363000000    -6.242000000     0.437000000
H    -3.025000000    -4.903000000     0.198000000
O     0.202000000    -0.048000000    -4.747000000
H    -0.739000000    -0.128000000    -4.903000000
H     0.581000000    -0.820000000    -5.168000000
O    -6.766000000     1.882000000    -0.124000000
H    -7.465000000     2.531000000    -0.205000000
H    -6.180000000     2.067000000    -0.858000000
O    -4.094000000    -1.803000000     3.160000000
H    -4.057000000    -0.870000000     2.949000000
H    -4.736000000    -1.863000000     3.867000000
O     3.328000000     1.302000000     3.996000000
H     3.570000000     1.012000000     4.875000000
H     3.187000000     0.491000000     3.507000000
O    -7.048000000    -0.730000000    -3.148000000
H    -7.634000000    -0.586000000    -2.405000000
H    -7.058000000     0.099000000    -3.625000000
O     0.087000000    -5.347000000    -1.113000000
H    -0.852000000    -5.485000000    -0.984000000
H     0.176000000    -4.402000000    -1.229000000
O     4.821000000     0.926000000     0.648000000
H     5.094000000     0.247000000     0.031000000
H     4.398000000     0.447000000     1.361000000
O    -0.128000000     2.707000000    -3.868000000
H    -0.973000000     2.801000000    -3.427000000
H    -0.065000000     1.773000000    -4.067000000
O     0.931000000     5.348000000     0.787000000
H     0.169000000     5.006000000     0.320000000
H     1.559000000     4.626000000     0.783000000
O    -2.849000000     3.030000000    -2.327000000
H    -3.692000000     2.966000000    -2.778000000
H    -3.025000000     2.707000000    -1.444000000
O     3.450000000     4.022000000     4.787000000
H     4.308000000     3.940000000     5.205000000
H     3.215000000     3.126000000     4.545000000
O     5.403000000     2.324000000    -3.992000000
H     4.695000000     2.693000000    -4.520000000
H     5.248000000     2.663000000    -3.111000000
O    -2.917000000    -4.004000000     1.971000000
H    -3.341000000    -3.380000000     2.560000000
H    -2.043000000    -3.641000000     1.827000000
O     2.612000000     1.218000000    -5.288000000
H     1.715000000     1.011000000    -5.025000000
H     2.894000000     0.457000000    -5.795000000
O    -1.711000000     0.086000000     5.021000000
H    -2.270000000     0.373000000     5.743000000
H    -2.091000000     0.498000000     4.245000000
O     0.551000000    -6.059000000     3.744000000
H     0.135000000    -5.379000000     3.214000000
H    -0.159000000    -6.414000000     4.279000000
O    -0.057000000    -3.579000000     2.131000000
H     0.513000000    -2.950000000     2.573000000
H     0.297000000    -3.641000000     1.244000000
O     0.367000000     2.320000000     3.802000000
H     1.033000000     1.688000000     4.073000000
H    -0.088000000     2.551000000     4.612000000
O     4.202000000     3.736000000    -1.724000000
H     4.438000000     3.482000000    -0.832000000
H     3.370000000     4.200000000    -1.629000000
