158
-3040.42428
C    -0.683000000    -0.973000000     0.908000000
H    -1.366000000    -1.578000000     1.499000000
C    -1.181000000     0.199000000     0.433000000
H    -2.203000000     0.510000000     0.631000000
C    -0.515000000     1.000000000    -0.421000000
H    -0.993000000     1.897000000    -0.799000000
C     0.777000000     0.684000000    -0.730000000
H     1.228000000     1.360000000    -1.451000000
C     1.366000000    -0.476000000    -0.238000000
H     2.358000000    -0.775000000    -0.567000000
C     0.686000000    -1.307000000     0.661000000
C     1.242000000    -2.606000000     1.140000000
O     0.715000000    -3.243000000     2.048000000
O     2.321000000    -2.952000000     0.682000000
O     3.044000000    -3.785000000    -2.079000000
H     2.749000000    -4.058000000    -1.210000000
H     3.951000000    -3.509000000    -1.948000000
O    -4.112000000     3.149000000    -1.389000000
H    -4.210000000     3.672000000    -0.593000000
H    -4.842000000     2.531000000    -1.361000000
O     3.481000000     1.100000000     3.041000000
H     2.576000000     1.373000000     3.188000000
H     3.446000000     0.143000000     3.043000000
O    -3.978000000    -2.951000000    -0.231000000
H    -4.387000000    -2.322000000    -0.825000000
H    -4.042000000    -2.542000000     0.632000000
O     0.884000000     1.557000000     2.788000000
H     0.773000000     0.808000000     3.374000000
H     0.529000000     1.260000000     1.950000000
O     6.256000000    -2.102000000     2.774000000
H     7.015000000    -2.550000000     2.400000000
H     5.677000000    -1.948000000     2.028000000
O     2.947000000    -5.903000000     4.973000000
H     2.430000000    -6.616000000     4.597000000
H     2.812000000    -5.168000000     4.374000000
O     5.453000000    -5.747000000     2.417000000
H     5.611000000    -5.569000000     1.489000000
H     6.260000000    -5.476000000     2.854000000
O     1.267000000     3.905000000    -3.553000000
H     0.395000000     3.593000000    -3.310000000
H     1.369000000     3.642000000    -4.468000000
O    -0.027000000     4.004000000     0.351000000
H    -0.472000000     4.397000000    -0.399000000
H    -0.720000000     3.867000000     0.997000000
O    -3.378000000    -4.781000000    -2.131000000
H    -3.514000000    -4.164000000    -1.412000000
H    -2.799000000    -4.319000000    -2.737000000
O     3.411000000    -3.747000000     3.419000000
H     4.161000000    -4.292000000     3.180000000
H     3.144000000    -3.334000000     2.597000000
O     4.857000000     2.101000000    -0.514000000
H     5.079000000     2.526000000     0.314000000
H     5.669000000     1.674000000    -0.789000000
O     4.829000000    -6.432000000    -1.363000000
H     5.188000000    -7.236000000    -0.986000000
H     4.126000000    -6.180000000    -0.765000000
O    -1.337000000     3.313000000    -3.579000000
H    -1.669000000     2.470000000    -3.888000000
H    -1.878000000     3.518000000    -2.817000000
O     3.869000000     3.375000000    -2.951000000
H     2.945000000     3.522000000    -3.151000000
H     3.871000000     3.054000000    -2.050000000
O     1.401000000     6.407000000    -2.040000000
H     0.476000000     6.337000000    -1.806000000
H     1.549000000     5.687000000    -2.652000000
O    -2.439000000     6.404000000     1.355000000
H    -1.559000000     6.696000000     1.594000000
H    -3.024000000     6.990000000     1.835000000
O    -3.796000000     2.971000000    -5.792000000
H    -3.359000000     2.139000000    -5.609000000
H    -4.483000000     2.748000000    -6.420000000
O    -1.324000000     6.089000000    -1.232000000
H    -1.797000000     6.109000000    -0.400000000
H    -1.500000000     6.943000000    -1.628000000
O    -3.397000000    -2.110000000    -4.025000000
H    -2.782000000    -1.503000000    -3.613000000
H    -2.845000000    -2.811000000    -4.373000000
O     3.033000000    -1.430000000     4.580000000
H     3.058000000    -1.571000000     5.526000000
H     3.186000000    -2.297000000     4.204000000
O    -2.221000000     0.079000000     4.148000000
H    -1.274000000    -0.056000000     4.189000000
H    -2.419000000     0.624000000     4.910000000
O     5.093000000     1.268000000    -4.103000000
H     4.690000000     2.036000000    -3.697000000
H     5.757000000     0.985000000    -3.473000000
O    -5.840000000     2.710000000     1.859000000
H    -6.608000000     3.278000000     1.799000000
H    -5.180000000     3.141000000     1.316000000
O    -1.435000000    -0.898000000    -2.656000000
H    -0.686000000    -1.479000000    -2.788000000
H    -1.425000000    -0.704000000    -1.718000000
O     0.357000000    -3.544000000     4.638000000
H    -0.175000000    -4.334000000     4.732000000
H     0.739000000    -3.617000000     3.763000000
O     1.807000000     4.034000000     3.717000000
H     2.394000000     4.428000000     3.072000000
H     1.392000000     3.308000000     3.252000000
O    -4.083000000    -1.300000000     2.302000000
H    -3.455000000    -0.815000000     2.837000000
H    -4.892000000    -0.793000000     2.363000000
O     0.834000000    -2.336000000    -2.910000000
H     1.086000000    -2.818000000    -2.121000000
H     1.627000000    -1.864000000    -3.164000000
O    -2.420000000     0.965000000    -4.818000000
H    -2.333000000     0.703000000    -3.901000000
H    -1.571000000     0.758000000    -5.208000000
O     0.428000000    -0.827000000     3.996000000
H     1.309000000    -0.981000000     4.336000000
H     0.103000000    -1.698000000     3.769000000
O     0.176000000     0.165000000    -5.650000000
H     0.737000000     0.788000000    -6.112000000
H     0.681000000    -0.648000000    -5.635000000
O     2.971000000    -5.598000000     0.297000000
H     2.709000000    -4.752000000     0.661000000
H     2.360000000    -6.225000000     0.685000000
O    -4.594000000    -5.076000000     1.566000000
H    -3.658000000    -5.130000000     1.762000000
H    -4.639000000    -4.580000000     0.749000000
O    -6.276000000     1.686000000    -1.382000000
H    -6.120000000     0.742000000    -1.365000000
H    -6.971000000     1.825000000    -0.739000000
O    -2.535000000     5.231000000    -5.350000000
H    -2.978000000     4.462000000    -5.709000000
H    -2.265000000     4.963000000    -4.472000000
O     4.820000000    -1.560000000     0.700000000
H     5.033000000    -1.422000000    -0.223000000
H     3.945000000    -1.948000000     0.689000000
O    -1.707000000     2.670000000     2.617000000
H    -1.717000000     1.718000000     2.712000000
H    -1.157000000     2.977000000     3.337000000
O    -4.079000000    -3.172000000     4.594000000
H    -4.254000000    -3.046000000     3.662000000
H    -4.932000000    -3.061000000     5.015000000
O     4.613000000    -1.017000000    -2.163000000
H     3.918000000    -1.087000000    -2.817000000
H     5.005000000    -0.158000000    -2.321000000
O    -1.845000000    -5.312000000     4.838000000
H    -1.829000000    -6.012000000     4.185000000
H    -2.293000000    -4.587000000     4.401000000
O     2.866000000    -0.658000000    -4.116000000
H     3.587000000    -0.030000000    -4.158000000
H     2.681000000    -0.871000000    -5.031000000
O    -2.231000000    -1.983000000     6.319000000
H    -3.018000000    -2.471000000     6.079000000
H    -1.882000000    -1.667000000     5.485000000
O     1.028000000    -7.686000000     3.631000000
H     1.331000000    -7.538000000     2.735000000
H     0.090000000    -7.852000000     3.542000000
O    -1.735000000    -4.835000000     2.123000000
H    -1.067000000    -4.149000000     2.114000000
H    -1.405000000    -5.498000000     1.516000000
O    -3.714000000     4.022000000     1.174000000
H    -3.133000000     3.551000000     1.771000000
H    -3.433000000     4.935000000     1.236000000
O     2.488000000     4.124000000     0.964000000
H     1.603000000     3.854000000     0.717000000
H     3.048000000     3.404000000     0.673000000
