158
-3018.11553
C    -0.360000000    -1.137000000     0.876000000
H    -0.836000000    -1.856000000     1.537000000
C    -1.215000000    -0.506000000    -0.064000000
H    -2.263000000    -0.794000000    -0.089000000
C    -0.729000000     0.484000000    -0.891000000
H    -1.384000000     1.006000000    -1.703000000
C     0.595000000     0.857000000    -0.777000000
H     1.015000000     1.520000000    -1.528000000
C     1.381000000     0.319000000     0.281000000
H     2.425000000     0.576000000     0.440000000
C     0.885000000    -0.694000000     1.144000000
C     1.723000000    -1.304000000     2.205000000
O     1.204000000    -2.133000000     2.940000000
O     2.794000000    -0.791000000     2.458000000
O     1.143000000    -4.205000000     0.088000000
H     1.575000000    -5.057000000     0.152000000
H     1.845000000    -3.597000000    -0.143000000
O    -2.991000000     3.076000000     0.350000000
H    -2.226000000     2.892000000     0.895000000
H    -3.734000000     3.011000000     0.950000000
O     1.786000000    -4.801000000     7.037000000
H     1.024000000    -5.060000000     6.520000000
H     1.922000000    -3.879000000     6.819000000
O    -2.241000000    -1.293000000    -3.204000000
H    -2.789000000    -0.557000000    -2.931000000
H    -2.862000000    -1.994000000    -3.401000000
O     4.987000000     2.690000000     2.751000000
H     4.079000000     2.986000000     2.691000000
H     5.011000000     1.886000000     2.232000000
O    -4.651000000    -0.653000000     0.885000000
H    -4.243000000     0.102000000     1.308000000
H    -5.361000000    -0.279000000     0.363000000
O     4.643000000    -2.973000000    -0.866000000
H     5.576000000    -3.072000000    -1.057000000
H     4.484000000    -2.031000000    -0.930000000
O     2.156000000     3.282000000     1.855000000
H     1.701000000     4.093000000     1.628000000
H     1.454000000     2.653000000     2.024000000
O     7.496000000     0.035000000     2.532000000
H     6.871000000     0.419000000     1.917000000
H     8.324000000     0.473000000     2.336000000
O     3.182000000    -6.639000000     4.936000000
H     2.666000000    -6.498000000     5.730000000
H     2.911000000    -5.936000000     4.346000000
O     4.800000000    -4.307000000     1.644000000
H     4.934000000    -3.720000000     0.899000000
H     5.682000000    -4.476000000     1.977000000
O     2.744000000     3.747000000    -3.478000000
H     2.634000000     2.838000000    -3.198000000
H     1.866000000     4.125000000    -3.416000000
O     2.320000000     5.329000000    -0.818000000
H     2.524000000     5.450000000    -1.746000000
H     1.440000000     5.692000000    -0.717000000
O    -3.191000000    -4.529000000    -1.927000000
H    -3.675000000    -5.346000000    -2.048000000
H    -2.773000000    -4.370000000    -2.773000000
O     2.672000000    -4.284000000     3.647000000
H     3.299000000    -4.255000000     2.924000000
H     2.157000000    -3.482000000     3.550000000
O    -1.364000000     4.825000000    -1.628000000
H    -2.048000000     4.749000000    -2.293000000
H    -1.577000000     4.146000000    -0.987000000
O    -3.467000000     4.517000000    -4.675000000
H    -3.088000000     3.639000000    -4.654000000
H    -3.577000000     4.752000000    -3.753000000
O    -0.113000000     7.031000000    -0.342000000
H    -0.865000000     6.521000000    -0.643000000
H    -0.282000000     7.918000000    -0.662000000
O    -5.934000000    -2.541000000    -1.215000000
H    -5.343000000    -2.815000000    -1.916000000
H    -5.520000000    -1.763000000    -0.843000000
O    -0.232000000    -2.100000000    -6.059000000
H    -0.949000000    -2.178000000    -5.431000000
H    -0.660000000    -2.117000000    -6.915000000
O     6.044000000    -0.012000000     5.171000000
H     5.459000000    -0.764000000     5.079000000
H     6.585000000    -0.030000000     4.382000000
O     4.108000000    -1.758000000     4.560000000
H     4.349000000    -2.625000000     4.234000000
H     3.537000000    -1.397000000     3.882000000
O    -2.491000000     0.820000000     3.800000000
H    -1.541000000     0.713000000     3.831000000
H    -2.624000000     1.766000000     3.735000000
O    -0.065000000    -2.985000000    -2.452000000
H     0.292000000    -2.501000000    -1.708000000
H    -0.908000000    -2.567000000    -2.628000000
O     0.731000000    -2.090000000     5.543000000
H    -0.214000000    -1.990000000     5.428000000
H     1.083000000    -2.080000000     4.652000000
O    -2.073000000     2.411000000    -3.874000000
H    -2.367000000     1.792000000    -3.206000000
H    -1.364000000     1.954000000    -4.327000000
O     0.064000000     1.168000000     5.301000000
H     0.056000000     0.638000000     6.098000000
H     0.991000000     1.248000000     5.076000000
O    -0.141000000     0.744000000    -4.897000000
H     0.010000000     0.062000000    -4.243000000
H     0.637000000     0.717000000    -5.455000000
O    -4.193000000    -4.523000000     1.006000000
H    -3.782000000    -3.933000000     0.375000000
H    -4.862000000    -3.988000000     1.433000000
O     2.625000000     1.387000000     4.262000000
H     3.539000000     1.216000000     4.490000000
H     2.466000000     0.850000000     3.486000000
O    -6.577000000     0.290000000    -0.813000000
H    -7.346000000    -0.280000000    -0.795000000
H    -6.893000000     1.130000000    -0.480000000
O     0.628000000     5.482000000    -3.462000000
H     0.212000000     6.305000000    -3.720000000
H    -0.043000000     5.020000000    -2.960000000
O    -1.349000000    -5.865000000    -0.457000000
H    -2.093000000    -5.387000000    -0.823000000
H    -0.743000000    -5.181000000    -0.170000000
O     5.071000000     0.241000000     1.529000000
H     4.927000000     0.085000000     0.596000000
H     4.301000000    -0.134000000     1.956000000
O    -4.325000000     1.153000000    -2.404000000
H    -4.409000000     2.045000000    -2.066000000
H    -5.023000000     0.665000000    -1.968000000
O    -4.052000000     0.091000000    -6.602000000
H    -4.365000000     0.881000000    -6.162000000
H    -3.116000000     0.243000000    -6.732000000
O     2.041000000    -0.194000000     7.215000000
H     1.874000000    -0.944000000     6.644000000
H     2.903000000     0.124000000     6.945000000
O    -4.546000000     3.901000000    -1.834000000
H    -5.158000000     4.584000000    -1.559000000
H    -3.930000000     3.824000000    -1.106000000
O    -5.398000000    -2.768000000     2.630000000
H    -5.043000000    -1.994000000     2.191000000
H    -6.185000000    -2.452000000     3.073000000
O     4.728000000    -0.114000000    -1.241000000
H     4.053000000     0.184000000    -1.851000000
H     5.554000000     0.104000000    -1.673000000
O    -2.633000000    -3.856000000     3.608000000
H    -3.230000000    -3.334000000     3.072000000
H    -1.847000000    -3.950000000     3.070000000
O     3.283000000     0.635000000    -3.535000000
H     2.833000000     0.107000000    -4.194000000
H     3.998000000     1.055000000    -4.012000000
O    -1.736000000    -1.490000000     5.008000000
H    -1.884000000    -2.295000000     4.511000000
H    -2.164000000    -0.807000000     4.491000000
O    -0.277000000    -5.530000000     5.214000000
H     0.053000000    -5.187000000     4.384000000
H    -0.885000000    -6.225000000     4.963000000
O    -0.214000000    -4.318000000     2.725000000
H     0.269000000    -3.492000000     2.704000000
H     0.149000000    -4.826000000     1.999000000
O    -1.030000000     3.147000000     2.254000000
H    -0.383000000     3.852000000     2.260000000
H    -1.681000000     3.414000000     2.902000000
O    -5.271000000     1.705000000    -5.086000000
H    -4.874000000     1.358000000    -4.287000000
H    -6.203000000     1.505000000    -4.997000000
O     4.302000000     3.488000000    -0.683000000
H     3.613000000     3.983000000    -1.127000000
H     3.864000000     3.091000000     0.070000000
