158
-3016.86427
C     0.445000000     0.559000000     1.351000000
H     0.598000000     1.037000000     2.316000000
C     0.128000000     1.306000000     0.157000000
H     0.036000000     2.389000000     0.162000000
C    -0.198000000     0.674000000    -1.043000000
H    -0.375000000     1.285000000    -1.979000000
C    -0.320000000    -0.743000000    -1.037000000
H    -0.651000000    -1.294000000    -1.914000000
C     0.039000000    -1.440000000     0.139000000
H     0.038000000    -2.525000000     0.213000000
C     0.410000000    -0.787000000     1.283000000
C     0.676000000    -1.558000000     2.541000000
O     0.410000000    -1.010000000     3.574000000
O     0.959000000    -2.783000000     2.534000000
O    -3.804000000     3.377000000    -1.186000000
H    -4.586000000     3.494000000    -0.646000000
H    -3.659000000     2.431000000    -1.195000000
O    -1.739000000    -6.458000000     2.250000000
H    -1.667000000    -5.635000000     2.734000000
H    -1.005000000    -6.438000000     1.636000000
O     0.685000000     5.588000000     1.897000000
H     1.521000000     5.151000000     1.733000000
H     0.397000000     5.887000000     1.035000000
O     3.194000000    -2.412000000     7.147000000
H     3.812000000    -2.990000000     7.595000000
H     2.670000000    -2.029000000     7.851000000
O     2.753000000     0.684000000    -6.678000000
H     2.174000000     0.216000000    -7.279000000
H     2.217000000     1.401000000    -6.338000000
O     5.418000000     1.764000000    -3.166000000
H     5.151000000     1.928000000    -2.261000000
H     5.629000000     0.831000000    -3.188000000
O     4.824000000     2.719000000     3.363000000
H     5.136000000     3.244000000     4.100000000
H     5.620000000     2.460000000     2.899000000
O     2.662000000    -3.812000000     4.729000000
H     1.836000000    -3.572000000     4.309000000
H     2.758000000    -3.186000000     5.446000000
O    -1.135000000     0.265000000    -4.482000000
H    -0.862000000    -0.001000000    -5.360000000
H    -0.363000000     0.689000000    -4.108000000
O     0.987000000    -5.007000000    -1.744000000
H     1.160000000    -5.948000000    -1.760000000
H     0.749000000    -4.791000000    -2.645000000
O     3.246000000    -2.964000000     1.443000000
H     3.745000000    -2.984000000     2.260000000
H     2.331000000    -3.023000000     1.719000000
O     1.948000000     6.199000000    -0.526000000
H     2.266000000     6.320000000    -1.421000000
H     2.419000000     5.429000000    -0.207000000
O    -2.899000000     7.399000000    -3.500000000
H    -3.294000000     8.002000000    -2.871000000
H    -2.594000000     6.664000000    -2.968000000
O     3.837000000    -0.587000000     0.421000000
H     3.533000000    -1.466000000     0.647000000
H     3.492000000    -0.028000000     1.117000000
O     2.734000000     1.588000000    -1.925000000
H     3.429000000     1.755000000    -1.287000000
H     1.948000000     1.461000000    -1.394000000
O    -1.672000000     1.044000000     3.733000000
H    -0.862000000     0.534000000     3.714000000
H    -1.675000000     1.455000000     4.598000000
O    -2.263000000     3.633000000     2.984000000
H    -2.036000000     2.712000000     3.112000000
H    -1.483000000     4.113000000     3.264000000
O    -0.596000000    -5.330000000     6.616000000
H    -0.578000000    -5.129000000     5.680000000
H    -1.428000000    -5.784000000     6.747000000
O     3.310000000    -6.747000000     3.461000000
H     2.830000000    -7.221000000     4.140000000
H     2.871000000    -5.898000000     3.406000000
O     0.708000000    -5.194000000     1.419000000
H     0.835000000    -5.147000000     0.472000000
H     0.934000000    -4.320000000     1.736000000
O    -0.199000000     4.659000000     4.115000000
H     0.168000000     5.136000000     3.370000000
H     0.443000000     4.778000000     4.815000000
O    -3.217000000     0.777000000    -0.298000000
H    -3.746000000     0.514000000     0.455000000
H    -2.323000000     0.533000000    -0.059000000
O    -1.904000000     5.595000000    -1.767000000
H    -2.063000000     6.376000000    -1.236000000
H    -2.471000000     4.926000000    -1.385000000
O    -2.759000000    -1.959000000     3.942000000
H    -1.918000000    -1.525000000     4.084000000
H    -3.248000000    -1.356000000     3.381000000
O    -0.343000000    -4.923000000    -4.098000000
H    -1.149000000    -5.317000000    -3.764000000
H    -0.641000000    -4.195000000    -4.643000000
O    -1.467000000    -6.493000000    -0.717000000
H    -2.095000000    -6.485000000    -1.440000000
H    -0.945000000    -5.701000000    -0.846000000
O     5.638000000    -0.774000000     2.736000000
H     5.314000000    -0.838000000     1.838000000
H     4.954000000    -0.296000000     3.204000000
O    -3.485000000    -1.473000000    -6.326000000
H    -3.620000000    -0.751000000    -5.713000000
H    -3.821000000    -1.144000000    -7.160000000
O     5.287000000    -3.102000000    -0.580000000
H     5.191000000    -2.373000000    -1.193000000
H     4.681000000    -2.898000000     0.132000000
O    -3.772000000     1.169000000    -5.191000000
H    -3.791000000     2.118000000    -5.314000000
H    -2.961000000     1.006000000    -4.710000000
O    -5.482000000    -0.783000000    -1.862000000
H    -5.711000000    -1.024000000    -0.965000000
H    -4.594000000    -0.431000000    -1.797000000
O    -1.738000000    -1.899000000     8.578000000
H    -2.233000000    -1.159000000     8.928000000
H    -1.858000000    -1.840000000     7.630000000
O    -0.515000000    -1.783000000     5.933000000
H    -0.220000000    -1.571000000     5.048000000
H     0.071000000    -2.483000000     6.221000000
O     1.276000000     1.190000000     4.877000000
H     1.131000000     1.106000000     5.820000000
H     1.052000000     0.330000000     4.523000000
O     5.365000000    -3.438000000     3.284000000
H     5.647000000    -3.910000000     4.067000000
H     5.659000000    -2.538000000     3.428000000
O    -4.045000000     3.845000000    -4.032000000
H    -3.504000000     3.897000000    -3.245000000
H    -3.684000000     4.511000000    -4.616000000
O     3.223000000    -0.904000000    -3.329000000
H     2.368000000    -1.216000000    -3.626000000
H     3.030000000    -0.097000000    -2.852000000
O     3.498000000     3.763000000     0.716000000
H     4.163000000     3.261000000     0.245000000
H     3.652000000     3.558000000     1.638000000
O     5.595000000    -1.484000000     5.467000000
H     4.682000000    -1.565000000     5.744000000
H     5.825000000    -0.576000000     5.663000000
O    -2.913000000     6.104000000     2.001000000
H    -2.754000000     5.164000000     2.083000000
H    -3.149000000     6.385000000     2.886000000
O    -3.950000000    -0.659000000     6.563000000
H    -3.397000000     0.092000000     6.347000000
H    -3.652000000    -1.352000000     5.973000000
O     0.301000000     4.276000000    -2.976000000
H    -0.468000000     4.700000000    -2.593000000
H     0.998000000     4.927000000    -2.896000000
O     3.736000000     3.780000000    -4.191000000
H     2.959000000     3.301000000    -3.905000000
H     4.379000000     3.098000000    -4.387000000
O     0.998000000     0.087000000     7.449000000
H     0.388000000    -0.606000000     7.198000000
H     1.417000000    -0.239000000     8.245000000
O     0.954000000     2.678000000    -5.994000000
H     0.640000000     3.307000000    -5.344000000
H     0.729000000     3.072000000    -6.837000000
O    -3.977000000     0.239000000     2.801000000
H    -4.648000000     0.765000000     3.236000000
H    -3.149000000     0.629000000     3.079000000
O    -0.983000000    -4.115000000     4.060000000
H    -1.529000000    -3.369000000     3.812000000
H    -0.152000000    -3.964000000     3.609000000
O     3.223000000     0.873000000     2.875000000
H     3.716000000     1.692000000     2.928000000
H     2.442000000     1.028000000     3.407000000
