158
-3021.84824
C     0.355000000     0.308000000     1.422000000
H     0.954000000     0.669000000     2.254000000
C     0.069000000     1.220000000     0.384000000
H     0.078000000     2.275000000     0.648000000
C    -0.179000000     0.852000000    -0.865000000
H    -0.327000000     1.527000000    -1.688000000
C    -0.228000000    -0.544000000    -1.196000000
H    -0.585000000    -0.874000000    -2.168000000
C    -0.031000000    -1.480000000    -0.178000000
H    -0.132000000    -2.549000000    -0.348000000
C     0.273000000    -1.072000000     1.130000000
C     0.418000000    -2.073000000     2.200000000
O     0.183000000    -1.787000000     3.384000000
O     0.714000000    -3.235000000     1.986000000
O    -2.908000000     3.260000000     0.258000000
H    -3.852000000     3.147000000     0.154000000
H    -2.566000000     2.369000000     0.324000000
O    -3.601000000    -4.191000000     1.713000000
H    -2.785000000    -4.458000000     2.137000000
H    -3.479000000    -3.261000000     1.524000000
O    -1.327000000    -7.117000000     2.068000000
H    -1.376000000    -6.371000000     2.665000000
H    -0.900000000    -6.769000000     1.284000000
O    -2.934000000    -4.305000000    -1.032000000
H    -3.228000000    -3.977000000    -0.183000000
H    -2.586000000    -5.177000000    -0.845000000
O     2.261000000     4.426000000     2.493000000
H     2.702000000     4.152000000     1.688000000
H     2.973000000     4.621000000     3.102000000
O     1.676000000    -1.178000000    -3.382000000
H     1.777000000    -0.916000000    -2.467000000
H     0.823000000    -0.828000000    -3.638000000
O     3.560000000    -2.211000000    -5.147000000
H     2.958000000    -1.721000000    -4.587000000
H     3.130000000    -3.057000000    -5.278000000
O     4.627000000     2.342000000     3.328000000
H     4.169000000     3.004000000     3.845000000
H     5.338000000     2.821000000     2.902000000
O     1.222000000    -3.528000000     5.056000000
H     0.949000000    -2.997000000     4.307000000
H     2.011000000    -3.095000000     5.381000000
O    -1.065000000    -0.980000000    -5.039000000
H    -1.966000000    -0.657000000    -5.023000000
H    -0.770000000    -0.823000000    -5.936000000
O     1.590000000    -4.446000000    -1.750000000
H     2.189000000    -3.790000000    -2.108000000
H     0.796000000    -4.358000000    -2.277000000
O     3.549000000    -3.024000000     2.514000000
H     3.747000000    -3.370000000     3.384000000
H     2.611000000    -3.182000000     2.402000000
O     2.201000000     6.207000000    -0.383000000
H     2.746000000     5.426000000    -0.280000000
H     1.733000000     6.066000000    -1.206000000
O    -1.337000000     7.581000000    -0.046000000
H    -2.085000000     8.146000000    -0.237000000
H    -1.463000000     6.817000000    -0.609000000
O     3.776000000    -3.142000000     5.888000000
H     3.877000000    -4.052000000     6.169000000
H     4.173000000    -2.629000000     6.592000000
O     0.593000000     6.127000000    -2.437000000
H     0.602000000     5.870000000    -3.359000000
H    -0.135000000     5.635000000    -2.058000000
O    -4.464000000     5.508000000    -1.706000000
H    -4.888000000     5.532000000    -0.848000000
H    -5.184000000     5.588000000    -2.331000000
O     5.101000000    -1.621000000     0.312000000
H     5.239000000    -2.070000000    -0.522000000
H     4.527000000    -2.206000000     0.807000000
O     2.680000000     1.627000000    -1.307000000
H     3.372000000     1.357000000    -0.702000000
H     1.874000000     1.290000000    -0.914000000
O    -2.392000000     1.386000000     2.708000000
H    -3.092000000     2.015000000     2.884000000
H    -1.594000000     1.913000000     2.693000000
O    -2.376000000     4.963000000     2.234000000
H    -2.576000000     4.520000000     1.409000000
H    -1.651000000     4.461000000     2.606000000
O    -0.364000000    -5.666000000     5.710000000
H    -0.028000000    -4.785000000     5.545000000
H    -1.117000000    -5.749000000     5.126000000
O     2.345000000    -6.030000000     4.176000000
H     2.979000000    -6.286000000     4.846000000
H     2.013000000    -5.182000000     4.473000000
O     1.692000000    -5.591000000     0.584000000
H     1.753000000    -5.296000000    -0.325000000
H     1.476000000    -4.800000000     1.078000000
O    -0.261000000     3.423000000     2.941000000
H     0.555000000     3.711000000     2.532000000
H     0.011000000     3.050000000     3.780000000
O    -3.222000000    -1.668000000     1.209000000
H    -3.586000000    -0.820000000     1.466000000
H    -2.541000000    -1.452000000     0.572000000
O    -1.723000000     5.165000000    -1.483000000
H    -2.676000000     5.122000000    -1.412000000
H    -1.406000000     4.504000000    -0.867000000
O    -2.021000000    -0.650000000     4.651000000
H    -1.129000000    -0.912000000     4.423000000
H    -2.288000000    -0.066000000     3.942000000
O    -1.005000000    -4.374000000    -3.143000000
H    -1.388000000    -3.580000000    -3.516000000
H    -1.378000000    -4.430000000    -2.264000000
O    -0.972000000    -6.199000000    -0.863000000
H    -0.216000000    -5.938000000    -0.337000000
H    -0.684000000    -6.990000000    -1.319000000
O    -3.702000000    -0.295000000    -5.434000000
H    -3.719000000     0.658000000    -5.342000000
H    -4.322000000    -0.479000000    -6.139000000
O    -0.380000000     1.032000000    -7.460000000
H    -1.222000000     1.437000000    -7.668000000
H    -0.517000000     0.098000000    -7.618000000
O    -4.728000000     2.724000000    -4.451000000
H    -5.238000000     3.153000000    -3.764000000
H    -4.962000000     3.193000000    -5.252000000
O    -2.533000000    -3.476000000     5.388000000
H    -2.553000000    -2.520000000     5.349000000
H    -1.678000000    -3.683000000     5.765000000
O     1.665000000    -0.203000000     5.031000000
H     2.593000000    -0.195000000     4.797000000
H     1.283000000    -0.882000000     4.475000000
O     4.317000000     0.126000000    -3.125000000
H     4.215000000     0.896000000    -2.565000000
H     3.426000000    -0.088000000    -3.401000000
O     4.496000000     0.941000000     0.546000000
H     4.541000000     1.014000000     1.499000000
H     4.685000000     0.019000000     0.367000000
O    -4.288000000     0.399000000     5.979000000
H    -4.045000000     1.323000000     5.926000000
H    -3.539000000    -0.067000000     5.606000000
O    -2.129000000     3.186000000    -3.701000000
H    -2.142000000     3.797000000    -2.964000000
H    -3.047000000     3.100000000    -3.957000000
O    -2.912000000    -2.713000000    -4.234000000
H    -3.070000000    -1.801000000    -4.477000000
H    -3.459000000    -2.852000000    -3.460000000
O     2.457000000     2.397000000    -3.980000000
H     1.617000000     1.950000000    -4.091000000
H     2.549000000     2.503000000    -3.034000000
O     1.982000000    -0.178000000     7.686000000
H     1.835000000    -0.269000000     6.745000000
H     2.562000000    -0.906000000     7.909000000
O     3.734000000     4.116000000     0.125000000
H     4.605000000     4.274000000    -0.237000000
H     3.359000000     3.440000000    -0.440000000
O     0.003000000     1.302000000    -4.157000000
H    -0.630000000     2.019000000    -4.105000000
H    -0.491000000     0.574000000    -4.535000000
O     3.530000000    -7.045000000     1.839000000
H     3.037000000    -7.098000000     2.658000000
H     3.001000000    -6.479000000     1.277000000
O     0.526000000     2.447000000     5.754000000
H     0.577000000     1.652000000     5.223000000
H     0.731000000     2.156000000     6.642000000
O    -1.291000000    -4.794000000     3.078000000
H    -1.530000000    -4.291000000     3.856000000
H    -0.511000000    -4.354000000     2.738000000
O     4.245000000    -0.273000000     4.581000000
H     4.644000000    -0.853000000     3.933000000
H     4.511000000     0.607000000     4.312000000
