158
-3025.62158
C     0.562000000     1.133000000     0.693000000
H     1.075000000     2.017000000     1.061000000
C     0.134000000     1.166000000    -0.641000000
H     0.214000000     2.001000000    -1.332000000
C    -0.479000000     0.005000000    -1.161000000
H    -0.860000000    -0.058000000    -2.155000000
C    -0.390000000    -1.157000000    -0.358000000
H    -0.750000000    -2.071000000    -0.823000000
C     0.016000000    -1.172000000     0.997000000
H     0.137000000    -2.099000000     1.551000000
C     0.435000000     0.028000000     1.521000000
C     0.913000000     0.050000000     2.959000000
O     1.471000000     1.004000000     3.414000000
O     0.828000000    -0.921000000     3.677000000
O    -3.145000000     1.756000000    -4.081000000
H    -2.907000000     2.249000000    -3.297000000
H    -3.778000000     2.314000000    -4.532000000
O     2.954000000     0.611000000     8.175000000
H     2.277000000     1.272000000     8.031000000
H     2.980000000     0.113000000     7.358000000
O     3.565000000     3.577000000    -1.537000000
H     3.551000000     4.525000000    -1.663000000
H     3.417000000     3.457000000    -0.599000000
O    -5.839000000    -3.916000000    -2.037000000
H    -6.195000000    -4.704000000    -1.627000000
H    -5.249000000    -3.550000000    -1.378000000
O    -3.196000000     0.651000000     2.536000000
H    -2.862000000     0.566000000     1.643000000
H    -3.524000000     1.549000000     2.585000000
O    -1.047000000    -2.956000000    -5.641000000
H    -1.840000000    -3.181000000    -5.155000000
H    -1.323000000    -2.265000000    -6.243000000
O    -3.041000000     3.563000000     3.499000000
H    -2.156000000     3.261000000     3.704000000
H    -3.251000000     4.182000000     4.197000000
O     2.990000000    -0.277000000     5.472000000
H     2.173000000    -0.574000000     5.070000000
H     3.412000000     0.250000000     4.794000000
O     1.539000000    -1.918000000    -5.352000000
H     0.587000000    -2.013000000    -5.393000000
H     1.786000000    -2.333000000    -4.526000000
O     2.516000000    -1.082000000    -0.571000000
H     1.674000000    -0.627000000    -0.557000000
H     2.566000000    -1.466000000    -1.446000000
O     4.449000000    -2.613000000     5.981000000
H     4.942000000    -2.496000000     6.793000000
H     3.898000000    -1.833000000     5.920000000
O    -2.368000000     3.263000000    -1.784000000
H    -2.948000000     4.016000000    -1.902000000
H    -2.478000000     3.018000000    -0.865000000
O    -0.197000000     3.102000000     4.063000000
H     0.111000000     3.617000000     3.317000000
H     0.325000000     2.301000000     4.033000000
O     4.945000000    -0.331000000     1.093000000
H     4.696000000     0.140000000     1.889000000
H     4.113000000    -0.545000000     0.672000000
O     3.191000000    -0.602000000    -7.053000000
H     2.534000000    -0.975000000    -6.466000000
H     2.699000000     0.000000000    -7.612000000
O    -0.451000000     0.383000000     6.264000000
H    -0.544000000    -0.539000000     6.505000000
H    -0.136000000     0.363000000     5.360000000
O     4.283000000     3.394000000     4.955000000
H     3.838000000     3.852000000     5.668000000
H     4.416000000     4.065000000     4.286000000
O     0.909000000    -5.247000000    -6.281000000
H     1.206000000    -4.720000000    -7.023000000
H     0.745000000    -4.610000000    -5.585000000
O    -0.608000000     4.379000000     6.276000000
H    -0.596000000     3.791000000     5.521000000
H    -1.354000000     4.958000000     6.117000000
O    -0.321000000    -3.011000000     5.086000000
H    -0.161000000    -2.133000000     4.740000000
H    -0.123000000    -3.597000000     4.355000000
O    -2.361000000     4.367000000    -6.003000000
H    -2.142000000     5.295000000    -5.912000000
H    -1.564000000     3.906000000    -5.742000000
O    -4.361000000    -1.309000000    -0.936000000
H    -5.083000000    -1.088000000    -1.524000000
H    -3.712000000    -0.621000000    -1.086000000
O    -0.753000000    -1.807000000     7.875000000
H    -0.491000000    -2.546000000     7.326000000
H    -1.609000000    -2.058000000     8.223000000
O     0.967000000     5.142000000    -3.070000000
H     1.193000000     5.509000000    -3.925000000
H     0.562000000     4.299000000    -3.272000000
O     6.753000000     1.890000000     2.562000000
H     5.845000000     1.671000000     2.773000000
H     7.268000000     1.194000000     2.969000000
O    -3.701000000    -3.594000000     0.539000000
H    -3.232000000    -4.091000000    -0.131000000
H    -3.620000000    -2.681000000     0.261000000
O     0.338000000    -4.690000000     0.662000000
H     1.120000000    -5.232000000     0.758000000
H     0.589000000    -4.016000000     0.030000000
O    -0.166000000     1.574000000    -6.348000000
H     0.084000000     1.944000000    -7.195000000
H     0.612000000     1.678000000    -5.801000000
O    -2.365000000    -3.887000000     6.759000000
H    -1.935000000    -3.471000000     6.012000000
H    -2.091000000    -4.803000000     6.714000000
O     0.585000000     2.409000000     7.782000000
H     0.115000000     3.104000000     7.321000000
H     0.378000000     1.614000000     7.291000000
O     1.922000000     4.838000000     5.709000000
H     1.997000000     5.747000000     6.001000000
H     1.020000000     4.594000000     5.916000000
O    -0.463000000     2.721000000    -3.637000000
H    -1.017000000     2.899000000    -2.878000000
H    -0.977000000     2.117000000    -4.173000000
O     2.342000000     1.957000000    -3.306000000
H     2.718000000     2.667000000    -2.784000000
H     1.407000000     1.982000000    -3.105000000
O     4.312000000    -0.130000000    -4.615000000
H     3.810000000     0.426000000    -4.019000000
H     3.776000000    -0.178000000    -5.406000000
O     4.076000000     1.324000000     3.277000000
H     4.086000000     1.939000000     4.011000000
H     3.148000000     1.131000000     3.139000000
O     3.483000000    -3.280000000     0.666000000
H     3.221000000    -2.474000000     0.221000000
H     3.255000000    -3.132000000     1.584000000
O    -2.131000000    -4.469000000    -1.566000000
H    -1.454000000    -4.922000000    -1.063000000
H    -2.365000000    -5.083000000    -2.262000000
O    -3.553000000     2.796000000     0.764000000
H    -4.458000000     2.495000000     0.687000000
H    -3.504000000     3.186000000     1.637000000
O    -3.400000000    -0.974000000    -5.099000000
H    -3.441000000    -0.132000000    -4.646000000
H    -3.322000000    -1.620000000    -4.398000000
O    -3.103000000    -1.205000000     4.682000000
H    -2.730000000    -0.729000000     5.424000000
H    -3.066000000    -0.583000000     3.955000000
O    -1.461000000    -0.609000000    -7.158000000
H    -2.297000000    -0.668000000    -6.696000000
H    -1.042000000     0.173000000    -6.798000000
O    -1.662000000    -5.115000000     2.550000000
H    -2.486000000    -4.812000000     2.168000000
H    -0.990000000    -4.817000000     1.937000000
O     2.633000000    -2.496000000    -2.736000000
H     3.559000000    -2.404000000    -2.960000000
H     2.568000000    -3.364000000    -2.339000000
O     1.713000000     4.172000000     2.545000000
H     2.011000000     3.579000000     3.235000000
H     2.469000000     4.732000000     2.369000000
O    -5.984000000     0.788000000    -4.434000000
H    -6.841000000     0.504000000    -4.751000000
H    -5.523000000    -0.025000000    -4.229000000
O     3.166000000    -2.518000000     3.366000000
H     2.394000000    -1.988000000     3.565000000
H     3.723000000    -2.427000000     4.140000000
O     0.369000000     6.362000000     0.558000000
H     0.606000000     5.593000000     1.076000000
H     1.155000000     6.907000000     0.564000000
O    -3.473000000    -2.890000000    -3.252000000
H    -4.339000000    -3.163000000    -2.948000000
H    -2.870000000    -3.226000000    -2.590000000
