158
-3025.22777
C     0.956000000    -1.121000000     0.252000000
H     1.695000000    -1.845000000     0.586000000
C     1.373000000     0.145000000    -0.089000000
H     2.431000000     0.392000000    -0.086000000
C     0.363000000     1.095000000    -0.384000000
H     0.662000000     2.125000000    -0.465000000
C    -0.939000000     0.798000000    -0.250000000
H    -1.769000000     1.500000000    -0.276000000
C    -1.347000000    -0.511000000     0.089000000
H    -2.404000000    -0.765000000     0.089000000
C    -0.399000000    -1.494000000     0.300000000
C    -0.912000000    -2.810000000     0.816000000
O    -2.062000000    -2.907000000     1.212000000
O    -0.180000000    -3.723000000     1.027000000
O     5.634000000    -1.244000000    -1.553000000
H     5.485000000    -1.183000000    -0.609000000
H     6.235000000    -1.981000000    -1.654000000
O     3.181000000     4.672000000    -5.057000000
H     3.278000000     5.337000000    -4.375000000
H     4.072000000     4.361000000    -5.216000000
O    -5.423000000     3.890000000     0.199000000
H    -4.783000000     3.893000000    -0.513000000
H    -6.265000000     4.021000000    -0.235000000
O    -4.103000000    -3.062000000    -0.533000000
H    -3.271000000    -2.990000000    -0.066000000
H    -4.367000000    -2.156000000    -0.694000000
O     0.866000000    -0.831000000     4.096000000
H     1.507000000    -0.145000000     3.909000000
H     0.046000000    -0.500000000     3.731000000
O    -3.337000000     3.222000000     1.881000000
H    -3.209000000     2.275000000     1.938000000
H    -4.180000000     3.324000000     1.438000000
O     6.867000000     0.945000000     1.604000000
H     6.754000000     0.986000000     0.654000000
H     6.176000000     1.509000000     1.952000000
O    -1.340000000    -0.417000000    -3.053000000
H    -1.026000000    -0.134000000    -2.194000000
H    -1.891000000     0.304000000    -3.357000000
O     1.305000000    -5.327000000    -0.981000000
H     0.732000000    -4.776000000    -0.447000000
H     1.982000000    -4.730000000    -1.300000000
O     6.438000000     1.403000000    -1.037000000
H     6.023000000     0.606000000    -1.365000000
H     6.239000000     2.066000000    -1.699000000
O     3.029000000    -2.877000000    -1.929000000
H     3.736000000    -3.199000000    -2.489000000
H     3.477000000    -2.417000000    -1.219000000
O     2.878000000     1.906000000    -2.052000000
H     2.285000000     2.657000000    -2.044000000
H     2.347000000     1.185000000    -2.391000000
O    -0.573000000     5.469000000    -0.756000000
H    -0.184000000     5.588000000     0.110000000
H    -1.444000000     5.860000000    -0.683000000
O     1.547000000    -7.319000000     1.248000000
H     1.185000000    -6.551000000     1.689000000
H     1.654000000    -7.044000000     0.337000000
O     2.536000000     2.125000000    -5.995000000
H     2.819000000     2.999000000    -5.725000000
H     1.818000000     1.910000000    -5.400000000
O    -2.024000000    -5.872000000     0.596000000
H    -1.713000000    -5.149000000     1.142000000
H    -2.185000000    -5.473000000    -0.260000000
O     2.331000000     1.041000000     3.130000000
H     1.588000000     1.632000000     3.252000000
H     2.764000000     1.360000000     2.338000000
O    -0.632000000    -3.112000000    -3.318000000
H    -0.910000000    -3.190000000    -4.231000000
H    -0.959000000    -2.256000000    -3.041000000
O    -2.583000000    -1.371000000     3.316000000
H    -2.424000000    -2.082000000     2.695000000
H    -2.457000000    -1.771000000     4.176000000
O    -4.931000000     1.908000000    -3.853000000
H    -4.539000000     1.493000000    -4.622000000
H    -4.212000000     2.400000000    -3.455000000
O    -1.464000000    -8.328000000     2.314000000
H    -1.171000000    -9.127000000     1.875000000
H    -1.548000000    -7.685000000     1.610000000
O    -0.752000000     4.574000000     2.004000000
H    -1.138000000     5.429000000     2.196000000
H    -1.501000000     3.981000000     1.944000000
O     5.826000000     3.105000000    -3.022000000
H     5.599000000     3.903000000    -2.544000000
H     4.987000000     2.674000000    -3.182000000
O     5.148000000     2.448000000     3.083000000
H     4.983000000     3.321000000     3.439000000
H     4.459000000     2.321000000     2.431000000
O     5.257000000    -1.639000000     1.015000000
H     4.907000000    -1.129000000     1.746000000
H     5.684000000    -2.389000000     1.429000000
O     3.856000000     2.588000000     0.737000000
H     3.647000000     3.509000000     0.581000000
H     3.708000000     2.162000000    -0.107000000
O     0.239000000     2.505000000    -4.469000000
H     0.323000000     3.100000000    -5.214000000
H     0.440000000     3.047000000    -3.706000000
O     4.167000000    -0.860000000     3.444000000
H     3.970000000    -1.462000000     4.162000000
H     3.367000000    -0.345000000     3.337000000
O     1.984000000     5.096000000     2.312000000
H     1.092000000     4.774000000     2.436000000
H     2.098000000     5.128000000     1.362000000
O     0.291000000     5.967000000    -3.841000000
H     0.508000000     6.834000000    -3.497000000
H    -0.080000000     6.139000000    -4.707000000
O    -3.541000000    -4.858000000     2.880000000
H    -2.808000000    -4.327000000     2.567000000
H    -3.534000000    -5.631000000     2.316000000
O     1.195000000     7.690000000    -1.977000000
H     1.158000000     8.385000000    -1.320000000
H     0.545000000     7.050000000    -1.684000000
O    -6.309000000    -3.795000000     2.648000000
H    -5.370000000    -3.976000000     2.597000000
H    -6.637000000    -3.983000000     1.769000000
O     3.648000000    -4.201000000     2.863000000
H     3.154000000    -4.401000000     2.068000000
H     3.078000000    -4.487000000     3.577000000
O     0.649000000    -5.268000000     2.937000000
H     0.588000000    -4.582000000     3.603000000
H     0.502000000    -4.811000000     2.109000000
O     0.566000000    -3.458000000     5.078000000
H    -0.107000000    -3.912000000     5.586000000
H     0.170000000    -2.615000000     4.856000000
O    -6.583000000    -3.923000000    -0.063000000
H    -7.096000000    -3.389000000    -0.670000000
H    -5.676000000    -3.660000000    -0.220000000
O     0.217000000     2.619000000     3.610000000
H    -0.382000000     3.056000000     3.004000000
H    -0.355000000     2.108000000     4.184000000
O    -3.922000000     0.637000000     1.790000000
H    -3.402000000    -0.063000000     2.184000000
H    -4.745000000     0.629000000     2.278000000
O    -1.410000000    -5.309000000    -1.992000000
H    -0.942000000    -4.561000000    -2.363000000
H    -0.719000000    -5.903000000    -1.699000000
O    -2.499000000     3.567000000    -4.072000000
H    -2.286000000     4.427000000    -4.435000000
H    -2.298000000     2.952000000    -4.778000000
O     1.701000000    -0.622000000    -3.568000000
H     0.789000000    -0.337000000    -3.521000000
H     1.717000000    -1.452000000    -3.093000000
O     3.079000000     5.081000000    -0.423000000
H     3.744000000     5.598000000    -0.879000000
H     2.447000000     4.851000000    -1.104000000
O    -4.690000000    -0.137000000    -0.806000000
H    -5.453000000     0.291000000    -1.195000000
H    -4.640000000     0.220000000     0.080000000
O    -4.487000000    -0.998000000    -3.513000000
H    -3.575000000    -1.290000000    -3.519000000
H    -4.620000000    -0.649000000    -2.632000000
O    -4.320000000     4.821000000    -2.184000000
H    -4.572000000     5.361000000    -2.933000000
H    -3.598000000     4.282000000    -2.509000000
O     1.287000000     4.113000000    -2.257000000
H     1.188000000     4.844000000    -2.867000000
H     0.603000000     4.253000000    -1.602000000
O     4.377000000    -0.727000000    -4.041000000
H     4.718000000    -0.711000000    -3.147000000
H     3.426000000    -0.690000000    -3.935000000
