158
-3024.53445
C     1.292000000    -0.788000000    -0.070000000
H     2.323000000    -1.118000000     0.026000000
C     1.140000000     0.465000000    -0.645000000
H     1.922000000     0.910000000    -1.255000000
C    -0.107000000     1.089000000    -0.558000000
H    -0.179000000     2.117000000    -0.995000000
C    -1.143000000     0.381000000     0.055000000
H    -2.100000000     0.881000000    -0.078000000
C    -0.960000000    -0.831000000     0.690000000
H    -1.824000000    -1.274000000     1.181000000
C     0.265000000    -1.391000000     0.672000000
C     0.472000000    -2.641000000     1.458000000
O    -0.462000000    -3.016000000     2.109000000
O     1.503000000    -3.250000000     1.473000000
O     5.331000000    -0.966000000    -2.142000000
H     4.897000000    -1.418000000    -1.418000000
H     6.265000000    -1.101000000    -1.982000000
O    -0.231000000     1.752000000    -5.629000000
H     0.056000000     0.988000000    -6.130000000
H    -0.025000000     2.498000000    -6.191000000
O    -4.229000000     5.870000000    -0.082000000
H    -3.667000000     5.832000000    -0.856000000
H    -5.118000000     5.794000000    -0.428000000
O    -3.655000000    -2.538000000     2.994000000
H    -2.954000000    -3.172000000     3.142000000
H    -3.211000000    -1.690000000     2.977000000
O    -2.810000000     3.675000000     2.970000000
H    -3.360000000     3.646000000     3.753000000
H    -3.415000000     3.512000000     2.247000000
O     5.399000000     0.057000000     2.279000000
H     5.030000000     0.732000000     1.709000000
H     4.667000000    -0.215000000     2.833000000
O    -2.129000000     3.208000000    -3.054000000
H    -1.585000000     3.993000000    -2.985000000
H    -2.344000000     3.147000000    -3.985000000
O     1.515000000    -5.674000000     0.156000000
H     1.693000000    -4.768000000     0.407000000
H     2.318000000    -5.965000000    -0.276000000
O     4.854000000     2.314000000     0.923000000
H     4.023000000     2.454000000     0.469000000
H     5.516000000     2.662000000     0.325000000
O     4.322000000    -5.480000000    -0.590000000
H     3.753000000    -5.439000000    -1.358000000
H     5.003000000    -6.108000000    -0.830000000
O     1.352000000     2.916000000    -3.473000000
H     0.976000000     2.522000000    -4.261000000
H     0.780000000     3.659000000    -3.282000000
O     2.599000000    -7.632000000     2.358000000
H     2.383000000    -8.135000000     3.143000000
H     2.250000000    -6.757000000     2.530000000
O     3.989000000     3.829000000    -4.006000000
H     3.048000000     3.709000000    -3.872000000
H     4.051000000     4.369000000    -4.794000000
O    -1.060000000    -5.698000000     1.747000000
H    -0.827000000    -4.773000000     1.830000000
H    -0.382000000    -6.066000000     1.182000000
O     1.590000000     1.480000000     2.523000000
H     0.917000000     1.944000000     3.022000000
H     1.173000000     1.283000000     1.684000000
O    -2.525000000    -4.310000000    -1.394000000
H    -2.737000000    -3.378000000    -1.457000000
H    -3.374000000    -4.743000000    -1.310000000
O    -1.515000000     0.009000000     4.803000000
H    -0.991000000    -0.788000000     4.714000000
H    -1.461000000     0.228000000     5.733000000
O    -5.259000000     4.321000000    -3.090000000
H    -5.113000000     3.522000000    -2.584000000
H    -4.492000000     4.864000000    -2.909000000
O    -0.851000000    -7.896000000     3.836000000
H    -0.035000000    -8.380000000     3.710000000
H    -0.901000000    -7.311000000     3.080000000
O    -0.909000000     5.769000000     2.777000000
H    -1.325000000     6.486000000     3.256000000
H    -1.510000000     5.031000000     2.881000000
O     5.154000000     4.407000000    -0.927000000
H     5.551000000     4.007000000    -1.701000000
H     4.274000000     4.032000000    -0.889000000
O     4.514000000    -2.730000000    -0.160000000
H     3.718000000    -2.691000000     0.369000000
H     4.547000000    -3.633000000    -0.477000000
O    -0.140000000     5.169000000    -3.154000000
H     0.473000000     5.516000000    -3.802000000
H    -0.218000000     5.864000000    -2.501000000
O     3.045000000    -0.477000000     3.450000000
H     2.551000000    -0.689000000     4.241000000
H     2.512000000     0.179000000     3.002000000
O     1.661000000    -0.452000000    -4.683000000
H     1.151000000    -0.593000000    -3.885000000
H     2.263000000     0.258000000    -4.460000000
O     4.257000000    -5.979000000     4.536000000
H     3.615000000    -5.317000000     4.278000000
H     4.486000000    -6.422000000     3.719000000
O    -0.260000000     7.434000000    -1.648000000
H    -0.371000000     7.904000000    -0.822000000
H    -0.121000000     8.122000000    -2.299000000
O    -3.366000000    -2.031000000    -2.821000000
H    -4.155000000    -1.550000000    -2.569000000
H    -2.759000000    -1.354000000    -3.121000000
O    -6.548000000    -0.285000000    -0.325000000
H    -5.936000000     0.373000000     0.006000000
H    -7.328000000     0.215000000    -0.567000000
O     0.114000000    -2.797000000     4.682000000
H    -0.644000000    -3.361000000     4.835000000
H     0.246000000    -2.824000000     3.735000000
O     6.251000000    -4.470000000     2.024000000
H     5.529000000    -3.898000000     1.762000000
H     5.844000000    -5.325000000     2.158000000
O    -2.164000000    -4.993000000     4.248000000
H    -1.689000000    -5.453000000     3.555000000
H    -2.379000000    -5.675000000     4.884000000
O     3.917000000    -3.007000000     2.806000000
H     3.797000000    -2.201000000     3.308000000
H     3.110000000    -3.095000000     2.299000000
O     1.734000000    -5.308000000     3.435000000
H     1.268000000    -4.908000000     4.170000000
H     1.768000000    -4.622000000     2.769000000
O     2.543000000    -2.112000000     5.784000000
H     1.680000000    -2.050000000     5.376000000
H     2.451000000    -1.641000000     6.612000000
O    -5.532000000    -2.644000000     0.814000000
H    -5.945000000    -1.805000000     0.607000000
H    -4.971000000    -2.455000000     1.567000000
O    -5.656000000     1.357000000    -4.081000000
H    -4.986000000     1.825000000    -4.578000000
H    -5.333000000     1.360000000    -3.180000000
O    -0.746000000     2.424000000     3.997000000
H    -1.528000000     2.910000000     3.733000000
H    -1.083000000     1.597000000     4.340000000
O     3.666000000    -2.416000000    -3.717000000
H     4.282000000    -1.833000000    -3.275000000
H     3.133000000    -1.835000000    -4.260000000
O    -4.276000000     0.433000000     3.610000000
H    -3.354000000     0.272000000     3.808000000
H    -4.725000000     0.313000000     4.448000000
O    -0.566000000    -6.113000000    -1.788000000
H    -1.179000000    -5.422000000    -1.536000000
H    -0.028000000    -6.252000000    -1.009000000
O    -1.870000000     0.227000000    -3.289000000
H    -1.372000000     0.779000000    -3.893000000
H    -1.879000000     0.720000000    -2.468000000
O     2.549000000     3.233000000    -0.280000000
H     2.091000000     2.747000000    -0.966000000
H     1.986000000     3.986000000    -0.103000000
O    -4.654000000     1.230000000     0.921000000
H    -4.895000000     2.098000000     1.247000000
H    -4.625000000     0.680000000     1.704000000
O    -4.610000000     2.042000000    -1.704000000
H    -3.745000000     2.265000000    -2.048000000
H    -4.438000000     1.699000000    -0.827000000
O     2.705000000    -4.854000000    -2.747000000
H     1.842000000    -4.981000000    -3.140000000
H     2.952000000    -3.963000000    -2.993000000
O     0.989000000     5.275000000     0.491000000
H     0.701000000     5.896000000    -0.177000000
H     0.223000000     5.150000000     1.050000000
O     3.967000000     0.946000000    -3.568000000
H     4.621000000     0.520000000    -3.014000000
H     4.205000000     1.872000000    -3.551000000
