158
-3056.65963
C    -1.161000000     0.827000000     0.451000000
H    -2.076000000     1.397000000     0.587000000
C    -1.284000000    -0.511000000     0.207000000
H    -2.254000000    -0.991000000     0.304000000
C    -0.092000000    -1.219000000    -0.135000000
H    -0.137000000    -2.328000000    -0.392000000
C     1.105000000    -0.613000000    -0.278000000
H     1.987000000    -1.183000000    -0.561000000
C     1.148000000     0.775000000    -0.073000000
H     2.069000000     1.351000000    -0.096000000
C     0.042000000     1.542000000     0.268000000
C     0.161000000     3.036000000     0.466000000
O    -0.812000000     3.796000000     0.506000000
O     1.256000000     3.579000000     0.345000000
O    -3.679000000    -3.604000000    -1.123000000
H    -4.148000000    -4.317000000    -0.689000000
H    -3.869000000    -2.833000000    -0.588000000
O     1.216000000    -4.500000000    -1.202000000
H     0.415000000    -4.061000000    -1.487000000
H     0.955000000    -5.410000000    -1.066000000
O     3.106000000     3.002000000     1.977000000
H     2.436000000     3.419000000     1.435000000
H     2.615000000     2.576000000     2.679000000
O    -4.770000000    -3.418000000     2.827000000
H    -4.518000000    -4.056000000     3.494000000
H    -4.402000000    -2.590000000     3.136000000
O    -0.296000000     3.531000000     5.214000000
H     0.100000000     2.975000000     4.543000000
H     0.430000000     4.062000000     5.543000000
O     4.830000000    -0.578000000     2.908000000
H     5.213000000    -0.364000000     3.759000000
H     3.886000000    -0.571000000     3.062000000
O     4.367000000     1.351000000    -0.265000000
H     4.213000000     1.805000000     0.563000000
H     3.970000000     1.918000000    -0.927000000
O    -1.011000000    -1.987000000    -4.396000000
H    -0.364000000    -1.912000000    -5.098000000
H    -1.856000000    -1.926000000    -4.842000000
O     6.038000000    -1.987000000    -2.776000000
H     6.910000000    -1.733000000    -3.079000000
H     5.792000000    -1.301000000    -2.155000000
O    -1.164000000    -1.269000000     3.400000000
H    -0.425000000    -0.726000000     3.124000000
H    -1.198000000    -1.973000000     2.753000000
O    -2.147000000    -6.594000000    -2.005000000
H    -1.387000000    -6.972000000    -2.447000000
H    -1.993000000    -5.649000000    -2.029000000
O     1.074000000     7.194000000     3.307000000
H     1.282000000     7.197000000     4.242000000
H     0.117000000     7.219000000     3.275000000
O    -6.037000000    -2.683000000    -2.276000000
H    -5.377000000    -2.661000000    -1.583000000
H    -6.692000000    -2.040000000    -2.004000000
O     3.121000000     3.261000000    -1.551000000
H     2.495000000     3.455000000    -0.854000000
H     2.577000000     3.014000000    -2.299000000
O    -1.718000000    -3.257000000     1.742000000
H    -2.564000000    -3.416000000     1.323000000
H    -1.262000000    -4.097000000     1.689000000
O    -4.975000000    -1.437000000     0.049000000
H    -5.367000000    -1.612000000     0.905000000
H    -4.864000000    -0.486000000     0.027000000
O    -0.885000000     6.425000000    -0.125000000
H    -0.523000000     6.380000000    -1.010000000
H    -0.787000000     5.537000000     0.219000000
O    -4.228000000     1.829000000     2.822000000
H    -5.015000000     1.603000000     2.326000000
H    -4.027000000     1.039000000     3.324000000
O    -4.824000000     3.933000000     0.045000000
H    -4.307000000     4.576000000     0.531000000
H    -4.721000000     4.187000000    -0.872000000
O     1.712000000     1.955000000     3.953000000
H     1.854000000     1.851000000     4.894000000
H     1.575000000     1.065000000     3.631000000
O     1.923000000    -2.951000000     4.291000000
H     2.715000000    -3.405000000     4.004000000
H     1.215000000    -3.574000000     4.124000000
O    -1.335000000    -3.847000000    -2.412000000
H    -2.151000000    -3.735000000    -1.925000000
H    -1.271000000    -3.063000000    -2.956000000
O     0.955000000    -7.418000000     2.484000000
H     0.568000000    -7.369000000     1.610000000
H     1.889000000    -7.263000000     2.342000000
O     5.310000000     5.972000000     0.838000000
H     4.392000000     6.239000000     0.877000000
H     5.287000000     5.021000000     0.946000000
O    -3.072000000     4.585000000     2.084000000
H    -2.442000000     4.470000000     1.372000000
H    -3.348000000     3.696000000     2.306000000
O     7.101000000     0.376000000    -0.972000000
H     6.212000000     0.667000000    -0.771000000
H     7.289000000     0.754000000    -1.831000000
O     0.917000000     5.462000000    -2.343000000
H     0.965000000     5.089000000    -1.463000000
H     0.766000000     4.709000000    -2.914000000
O    -1.896000000     3.273000000    -1.917000000
H    -2.400000000     2.460000000    -1.904000000
H    -1.655000000     3.421000000    -1.003000000
O     1.438000000    -0.451000000     3.028000000
H     1.333000000    -0.592000000     2.087000000
H     1.614000000    -1.322000000     3.383000000
O     0.015000000    -5.079000000     3.964000000
H    -0.073000000    -5.839000000     3.388000000
H    -0.260000000    -5.398000000     4.824000000
O     3.061000000    -0.538000000    -3.676000000
H     3.259000000    -1.475000000    -3.680000000
H     2.210000000    -0.475000000    -3.243000000
O     5.293000000     4.152000000     3.369000000
H     4.943000000     4.061000000     4.256000000
H     4.673000000     3.677000000     2.817000000
O     3.866000000    -3.887000000    -0.042000000
H     3.201000000    -3.886000000    -0.730000000
H     4.201000000    -2.990000000    -0.032000000
O     3.348000000    -6.576000000     0.768000000
H     2.855000000    -7.014000000     0.074000000
H     3.379000000    -5.658000000     0.497000000
O    -3.826000000    -0.836000000     3.846000000
H    -2.911000000    -0.803000000     3.566000000
H    -3.809000000    -0.533000000     4.754000000
O    -2.467000000     5.811000000    -3.132000000
H    -2.135000000     4.943000000    -2.902000000
H    -3.167000000     5.640000000    -3.762000000
O    -1.609000000     7.033000000     3.204000000
H    -2.108000000     6.319000000     2.806000000
H    -2.103000000     7.822000000     2.985000000
O    -5.752000000     1.459000000     0.128000000
H    -4.889000000     1.257000000    -0.233000000
H    -5.729000000     2.402000000     0.291000000
O    -3.418000000     0.940000000    -2.178000000
H    -3.503000000     1.430000000    -2.996000000
H    -3.462000000     0.021000000    -2.443000000
O     2.696000000    -3.509000000    -3.698000000
H     2.485000000    -4.172000000    -3.040000000
H     1.935000000    -3.499000000    -4.279000000
O    -3.774000000    -1.867000000    -3.917000000
H    -3.823000000    -2.254000000    -4.791000000
H    -4.552000000    -2.194000000    -3.466000000
O     4.474000000    -1.415000000     0.204000000
H     5.114000000    -1.186000000     0.878000000
H     4.186000000    -0.573000000    -0.149000000
O     2.184000000     6.380000000     0.834000000
H     1.693000000     5.565000000     0.727000000
H     1.996000000     6.657000000     1.730000000
O     4.812000000     4.952000000    -2.729000000
H     4.201000000     4.445000000    -2.195000000
H     5.644000000     4.485000000    -2.650000000
O     1.251000000     2.588000000    -3.248000000
H     1.570000000     2.271000000    -4.093000000
H     0.614000000     1.930000000    -2.970000000
O    -2.020000000    -5.955000000     0.831000000
H    -1.789000000    -6.338000000    -0.015000000
H    -2.795000000    -6.441000000     1.111000000
O    -0.073000000     0.358000000    -3.004000000
H    -0.250000000    -0.537000000    -3.292000000
H    -0.573000000     0.453000000    -2.193000000
O     0.274000000    -4.656000000    -4.681000000
H    -0.443000000    -4.122000000    -4.339000000
H    -0.141000000    -5.481000000    -4.932000000
