158
-3026.70470
C    -0.206000000     0.980000000     1.026000000
H    -0.608000000     1.784000000     1.636000000
C    -0.977000000    -0.143000000     0.795000000
H    -1.914000000    -0.291000000     1.325000000
C    -0.614000000    -1.043000000    -0.163000000
H    -1.184000000    -1.957000000    -0.416000000
C     0.576000000    -0.866000000    -0.848000000
H     0.847000000    -1.566000000    -1.634000000
C     1.426000000     0.267000000    -0.561000000
H     2.372000000     0.354000000    -1.089000000
C     0.981000000     1.206000000     0.371000000
C     1.642000000     2.544000000     0.510000000
O     1.683000000     3.137000000     1.583000000
O     2.316000000     3.039000000    -0.402000000
O     3.261000000    -1.263000000     3.640000000
H     3.344000000    -2.176000000     3.916000000
H     3.842000000    -1.187000000     2.884000000
O     0.364000000    -0.398000000     3.651000000
H     0.137000000    -0.440000000     2.722000000
H     0.785000000    -1.238000000     3.833000000
O     4.015000000     6.164000000    -3.975000000
H     3.460000000     6.026000000    -3.208000000
H     4.641000000     5.440000000    -3.952000000
O    -1.699000000    -1.672000000    -3.419000000
H    -1.042000000    -1.193000000    -3.924000000
H    -1.256000000    -2.477000000    -3.153000000
O    -0.032000000     4.687000000     2.899000000
H     0.564000000     4.192000000     2.337000000
H    -0.878000000     4.636000000     2.454000000
O    -4.280000000    -1.341000000     2.038000000
H    -3.571000000    -1.804000000     2.486000000
H    -4.415000000    -0.550000000     2.559000000
O     3.594000000     5.280000000    -1.035000000
H     3.340000000     5.773000000    -0.255000000
H     3.030000000     4.506000000    -1.023000000
O    -0.473000000     0.780000000    -4.496000000
H    -0.182000000     1.380000000    -3.810000000
H     0.244000000     0.151000000    -4.584000000
O    -2.535000000     4.366000000     1.708000000
H    -2.932000000     4.753000000     0.928000000
H    -3.181000000     4.505000000     2.400000000
O    -6.015000000    -2.769000000     0.398000000
H    -5.596000000    -2.005000000     0.795000000
H    -6.160000000    -2.516000000    -0.513000000
O     5.497000000     2.153000000     0.083000000
H     4.711000000     2.549000000     0.458000000
H     5.345000000     1.210000000     0.150000000
O    -3.371000000    -7.193000000    -1.066000000
H    -2.801000000    -6.438000000    -0.927000000
H    -3.198000000    -7.765000000    -0.319000000
O    -3.435000000    -2.257000000    -5.734000000
H    -3.077000000    -3.144000000    -5.699000000
H    -3.557000000    -2.012000000    -4.817000000
O    -0.753000000     6.482000000     0.481000000
H    -1.575000000     6.922000000     0.700000000
H    -0.131000000     6.797000000     1.136000000
O    -4.415000000    -0.868000000     4.887000000
H    -3.877000000    -0.100000000     5.077000000
H    -3.792000000    -1.593000000     4.849000000
O    -4.052000000     2.429000000    -2.655000000
H    -3.603000000     1.696000000    -2.234000000
H    -4.888000000     2.495000000    -2.193000000
O     3.297000000    -0.213000000    -3.501000000
H     3.824000000    -0.476000000    -4.256000000
H     3.849000000     0.407000000    -3.027000000
O    -3.086000000    -4.401000000    -2.620000000
H    -3.248000000    -4.777000000    -3.486000000
H    -3.890000000    -3.925000000    -2.412000000
O    -0.141000000     4.365000000    -1.232000000
H    -0.509000000     4.937000000    -0.558000000
H     0.761000000     4.213000000    -0.950000000
O     0.793000000    -4.130000000     0.011000000
H     1.310000000    -4.926000000    -0.116000000
H    -0.105000000    -4.442000000     0.118000000
O    -1.183000000    -5.794000000     3.436000000
H    -1.170000000    -6.074000000     4.351000000
H    -2.112000000    -5.699000000     3.227000000
O     2.712000000     3.975000000     5.183000000
H     2.293000000     3.175000000     4.864000000
H     3.496000000     4.067000000     4.641000000
O     5.591000000     3.719000000    -4.186000000
H     5.132000000     3.241000000    -3.496000000
H     6.029000000     3.040000000    -4.699000000
O     0.905000000     1.614000000     5.330000000
H     0.707000000     0.827000000     4.823000000
H     0.085000000     2.107000000     5.337000000
O     1.430000000     7.337000000     1.725000000
H     2.119000000     6.673000000     1.685000000
H     1.169000000     7.356000000     2.646000000
O     0.456000000     5.415000000     5.631000000
H     1.330000000     5.025000000     5.661000000
H     0.033000000     4.999000000     4.880000000
O     3.113000000    -2.410000000     0.639000000
H     3.144000000    -2.300000000    -0.311000000
H     2.331000000    -2.939000000     0.794000000
O    -0.435000000    -1.439000000    -6.663000000
H    -1.255000000    -1.086000000    -6.317000000
H     0.173000000    -1.401000000    -5.925000000
O    -5.013000000     1.679000000     2.758000000
H    -5.819000000     1.266000000     2.449000000
H    -4.838000000     2.370000000     2.120000000
O     5.268000000    -0.043000000     1.816000000
H     4.957000000     0.659000000     2.387000000
H     5.714000000    -0.652000000     2.404000000
O    -2.718000000     0.242000000    -1.690000000
H    -2.004000000     0.111000000    -1.066000000
H    -2.544000000    -0.387000000    -2.389000000
O     3.257000000     1.621000000     3.177000000
H     2.887000000     0.743000000     3.267000000
H     2.630000000     2.089000000     2.626000000
O    -0.438000000     4.714000000    -4.017000000
H     0.307000000     4.187000000    -4.309000000
H    -0.280000000     4.854000000    -3.083000000
O     3.798000000     2.313000000    -2.367000000
H     2.956000000     2.329000000    -1.912000000
H     4.442000000     2.513000000    -1.687000000
O     1.619000000     2.921000000    -4.416000000
H     2.124000000     2.686000000    -3.638000000
H     2.263000000     3.297000000    -5.015000000
O     6.666000000    -1.800000000    -0.574000000
H     7.422000000    -2.034000000    -0.035000000
H     5.947000000    -1.702000000     0.051000000
O     6.840000000     5.250000000     0.483000000
H     7.038000000     5.286000000    -0.453000000
H     6.281000000     4.479000000     0.580000000
O    -1.869000000    -4.508000000     0.456000000
H    -2.473000000    -4.182000000    -0.210000000
H    -2.355000000    -4.433000000     1.277000000
O     0.215000000    -3.491000000     2.732000000
H     0.035000000    -4.404000000     2.957000000
H     0.332000000    -3.496000000     1.782000000
O     1.244000000    -1.819000000    -4.158000000
H     1.285000000    -2.744000000    -3.915000000
H     2.056000000    -1.445000000    -3.818000000
O    -5.001000000    -0.008000000    -0.363000000
H    -4.627000000    -0.546000000     0.334000000
H    -4.251000000     0.232000000    -0.908000000
O    -1.628000000    -0.828000000     6.462000000
H    -1.285000000    -0.311000000     5.734000000
H    -0.878000000    -1.337000000     6.769000000
O     3.294000000     5.478000000     1.870000000
H     2.635000000     4.823000000     1.640000000
H     3.886000000     5.022000000     2.468000000
O     1.759000000    -5.708000000    -3.589000000
H     1.032000000    -5.205000000    -3.223000000
H     1.342000000    -6.463000000    -4.004000000
O    -2.538000000    -2.605000000     4.209000000
H    -1.675000000    -2.630000000     3.794000000
H    -2.387000000    -2.932000000     5.096000000
O    -3.675000000    -4.341000000     2.623000000
H    -4.588000000    -4.435000000     2.895000000
H    -3.241000000    -3.944000000     3.378000000
O    -0.350000000    -4.427000000    -2.703000000
H    -1.292000000    -4.581000000    -2.624000000
H    -0.103000000    -4.025000000    -1.871000000
O     5.413000000     4.027000000     3.154000000
H     6.095000000     4.651000000     3.404000000
H     5.642000000     3.222000000     3.619000000
