158
-3016.51385
C    -0.619000000     1.070000000     0.826000000
H    -1.228000000     1.743000000     1.424000000
C    -1.050000000    -0.249000000     0.680000000
H    -2.028000000    -0.517000000     1.071000000
C    -0.332000000    -1.182000000    -0.025000000
H    -0.673000000    -2.205000000    -0.130000000
C     0.765000000    -0.760000000    -0.682000000
H     1.301000000    -1.480000000    -1.295000000
C     1.292000000     0.518000000    -0.593000000
H     2.187000000     0.845000000    -1.117000000
C     0.550000000     1.444000000     0.177000000
C     0.955000000     2.916000000     0.154000000
O     0.543000000     3.650000000     1.019000000
O     1.594000000     3.392000000    -0.770000000
O    -1.801000000    -5.120000000    -0.382000000
H    -0.966000000    -5.380000000     0.006000000
H    -2.102000000    -4.392000000     0.161000000
O    -0.120000000     3.241000000    -5.390000000
H    -1.009000000     2.898000000    -5.299000000
H     0.063000000     3.658000000    -4.548000000
O     3.651000000     1.518000000     3.175000000
H     3.750000000     1.492000000     4.127000000
H     3.756000000     0.607000000     2.899000000
O    -4.115000000    -4.393000000     3.359000000
H    -4.565000000    -5.171000000     3.689000000
H    -4.792000000    -3.904000000     2.892000000
O    -4.063000000     1.503000000     3.025000000
H    -4.665000000     1.448000000     3.767000000
H    -3.369000000     0.878000000     3.231000000
O     4.831000000     2.469000000     0.844000000
H     4.273000000     1.879000000     1.350000000
H     4.232000000     3.136000000     0.507000000
O    -2.230000000    -1.751000000    -3.439000000
H    -1.312000000    -2.021000000    -3.425000000
H    -2.712000000    -2.527000000    -3.153000000
O     0.070000000    -7.739000000    -1.419000000
H    -0.141000000    -8.663000000    -1.553000000
H    -0.691000000    -7.267000000    -1.757000000
O    -0.006000000     3.268000000     3.520000000
H     0.515000000     3.389000000     2.726000000
H     0.144000000     2.356000000     3.769000000
O    -6.302000000    -2.937000000    -1.356000000
H    -6.091000000    -2.051000000    -1.650000000
H    -7.256000000    -2.985000000    -1.404000000
O     3.306000000     2.763000000    -2.727000000
H     2.837000000     2.631000000    -3.551000000
H     2.621000000     2.977000000    -2.093000000
O     3.556000000     5.181000000     0.034000000
H     2.761000000     4.714000000    -0.226000000
H     3.241000000     5.908000000     0.572000000
O    -3.048000000    -3.400000000     1.114000000
H    -3.925000000    -3.019000000     1.072000000
H    -3.005000000    -3.807000000     1.979000000
O     2.571000000    -6.701000000    -2.015000000
H     1.616000000    -6.759000000    -2.065000000
H     2.883000000    -7.448000000    -2.526000000
O     0.707000000     6.517000000    -0.049000000
H     0.241000000     6.301000000    -0.856000000
H     0.870000000     5.670000000     0.367000000
O    -5.564000000     1.599000000    -0.464000000
H    -5.748000000     1.729000000     0.466000000
H    -5.314000000     0.677000000    -0.532000000
O     0.712000000     0.830000000     3.806000000
H     0.524000000    -0.091000000     3.986000000
H     1.539000000     0.817000000     3.324000000
O     0.774000000     5.613000000     5.226000000
H     0.624000000     4.762000000     4.814000000
H     1.503000000     5.463000000     5.827000000
O    -2.377000000     4.162000000     5.939000000
H    -1.677000000     3.995000000     5.308000000
H    -3.089000000     4.529000000     5.415000000
O     2.514000000     2.332000000    -5.478000000
H     2.429000000     1.386000000    -5.593000000
H     1.619000000     2.663000000    -5.545000000
O    -0.454000000    -3.689000000    -2.663000000
H    -0.409000000    -3.979000000    -3.574000000
H    -0.934000000    -4.384000000    -2.214000000
O    -1.068000000    -6.151000000    -3.661000000
H    -0.489000000    -6.377000000    -4.389000000
H    -1.816000000    -6.741000000    -3.758000000
O    -1.566000000    -2.668000000     5.562000000
H    -1.287000000    -3.410000000     5.026000000
H    -0.834000000    -2.052000000     5.519000000
O    -3.614000000     6.015000000     0.130000000
H    -4.311000000     5.692000000    -0.440000000
H    -3.265000000     5.228000000     0.550000000
O    -3.015000000     3.713000000     1.422000000
H    -2.203000000     3.639000000     1.923000000
H    -3.595000000     3.057000000     1.807000000
O     2.411000000     7.761000000    -3.042000000
H     3.040000000     8.011000000    -2.366000000
H     2.581000000     6.831000000    -3.196000000
O    -2.859000000    -3.788000000    -5.372000000
H    -2.454000000    -2.944000000    -5.174000000
H    -3.076000000    -4.157000000    -4.516000000
O     0.319000000     4.380000000    -3.051000000
H    -0.548000000     4.621000000    -2.724000000
H     0.760000000     3.993000000    -2.295000000
O    -2.459000000     3.678000000    -1.944000000
H    -3.395000000     3.813000000    -1.798000000
H    -2.311000000     2.760000000    -1.719000000
O     3.224000000     8.217000000     2.059000000
H     2.827000000     7.373000000     2.274000000
H     4.132000000     8.136000000     2.351000000
O     2.215000000    -4.979000000     3.363000000
H     2.657000000    -5.797000000     3.136000000
H     1.478000000    -4.927000000     2.755000000
O     5.150000000     1.230000000    -3.794000000
H     5.776000000     1.295000000    -3.072000000
H     4.455000000     1.847000000    -3.564000000
O     5.848000000    -4.179000000     0.303000000
H     5.330000000    -4.976000000     0.420000000
H     5.198000000    -3.485000000     0.195000000
O    -3.126000000    -0.721000000     4.417000000
H    -2.796000000    -0.074000000     5.040000000
H    -2.783000000    -1.557000000     4.735000000
O    -1.315000000     6.501000000    -1.685000000
H    -1.823000000     5.905000000    -1.134000000
H    -1.902000000     7.241000000    -1.840000000
O    -5.596000000    -0.554000000    -2.682000000
H    -4.676000000    -0.311000000    -2.577000000
H    -5.962000000     0.130000000    -3.243000000
O    -3.739000000    -6.950000000    -1.051000000
H    -4.155000000    -7.120000000    -0.206000000
H    -3.109000000    -6.252000000    -0.872000000
O     2.048000000    -4.451000000    -3.680000000
H     2.259000000    -5.122000000    -3.031000000
H     1.557000000    -3.791000000    -3.190000000
O    -3.394000000    -4.000000000    -2.371000000
H    -2.929000000    -4.180000000    -1.554000000
H    -4.312000000    -3.920000000    -2.111000000
O     4.032000000    -2.264000000     0.216000000
H     3.883000000    -2.148000000     1.155000000
H     3.965000000    -1.381000000    -0.147000000
O    -4.856000000    -1.176000000     1.982000000
H    -5.078000000    -0.245000000     2.012000000
H    -4.218000000    -1.292000000     2.687000000
O     2.594000000     5.697000000     2.751000000
H     2.817000000     4.783000000     2.572000000
H     1.855000000     5.650000000     3.357000000
O    -0.310000000     6.810000000    -4.315000000
H    -0.067000000     7.558000000    -3.769000000
H    -0.331000000     6.069000000    -3.710000000
O    -6.292000000    -3.308000000     1.235000000
H    -6.042000000    -2.465000000     1.611000000
H    -6.329000000    -3.149000000     0.292000000
O     4.326000000     5.502000000    -2.978000000
H     4.103000000     5.631000000    -2.057000000
H     4.212000000     4.563000000    -3.123000000
O    -0.106000000     0.848000000    -3.759000000
H    -0.664000000     1.492000000    -3.324000000
H     0.373000000     0.425000000    -3.047000000
O     0.047000000    -6.405000000     1.106000000
H     0.061000000    -6.982000000     1.870000000
H     0.254000000    -6.979000000     0.369000000
O    -2.657000000     0.759000000    -1.967000000
H    -2.518000000     0.055000000    -2.601000000
H    -2.210000000     0.459000000    -1.175000000
