158
-3048.75500
C     0.234000000     0.334000000     1.447000000
H     0.194000000     0.646000000     2.487000000
C    -0.880000000    -0.307000000     0.926000000
H    -1.788000000    -0.433000000     1.510000000
C    -1.001000000    -0.561000000    -0.375000000
H    -1.984000000    -0.967000000    -0.810000000
C     0.044000000    -0.334000000    -1.248000000
H    -0.108000000    -0.613000000    -2.287000000
C     1.170000000     0.297000000    -0.818000000
H     1.961000000     0.551000000    -1.519000000
C     1.332000000     0.663000000     0.591000000
C     2.505000000     1.435000000     1.051000000
O     2.318000000     2.383000000     1.786000000
O     3.622000000     1.407000000     0.447000000
O     0.322000000     1.289000000    -5.568000000
H     1.199000000     0.950000000    -5.387000000
H     0.474000000     2.129000000    -6.000000000
O     3.975000000    -1.455000000     3.346000000
H     4.201000000    -2.279000000     3.777000000
H     3.660000000    -1.716000000     2.480000000
O    -3.048000000     4.653000000     3.012000000
H    -2.740000000     5.558000000     2.960000000
H    -2.507000000     4.179000000     2.381000000
O     1.493000000    -1.081000000     4.378000000
H     1.557000000    -0.304000000     4.933000000
H     2.284000000    -1.056000000     3.839000000
O    -3.198000000    -3.103000000    -2.536000000
H    -3.475000000    -3.778000000    -3.156000000
H    -3.940000000    -3.006000000    -1.939000000
O     0.914000000     4.049000000     3.383000000
H     1.434000000     3.460000000     2.836000000
H     0.451000000     4.609000000     2.760000000
O    -4.927000000    -0.621000000     2.399000000
H    -5.752000000    -0.323000000     2.782000000
H    -4.262000000    -0.376000000     3.042000000
O     1.564000000     4.235000000    -0.056000000
H     1.948000000     3.680000000     0.622000000
H     2.291000000     4.774000000    -0.365000000
O     5.518000000     3.367000000     0.960000000
H     5.099000000     3.970000000     0.346000000
H     4.978000000     2.578000000     0.927000000
O    -2.728000000    -1.149000000    -4.820000000
H    -2.481000000    -1.819000000    -4.183000000
H    -3.681000000    -1.216000000    -4.882000000
O     8.214000000     3.001000000     0.289000000
H     7.660000000     3.091000000     1.064000000
H     8.103000000     3.827000000    -0.182000000
O    -0.535000000     3.952000000    -2.155000000
H    -0.009000000     3.837000000    -1.364000000
H    -1.209000000     4.585000000    -1.906000000
O    -4.694000000     2.312000000     1.524000000
H    -4.552000000     2.045000000     2.433000000
H    -3.983000000     1.895000000     1.038000000
O    -5.271000000    -4.085000000    -0.632000000
H    -6.117000000    -4.474000000    -0.410000000
H    -5.329000000    -3.186000000    -0.307000000
O     3.056000000    -2.132000000    -0.792000000
H     2.700000000    -2.068000000     0.094000000
H     3.008000000    -3.064000000    -1.002000000
O     5.968000000     2.970000000    -4.132000000
H     5.456000000     2.456000000    -3.508000000
H     6.820000000     2.533000000    -4.160000000
O     2.287000000    -1.995000000    -3.664000000
H     1.354000000    -1.994000000    -3.450000000
H     2.714000000    -1.669000000    -2.872000000
O     6.463000000    -2.409000000    -1.116000000
H     6.904000000    -3.019000000    -0.524000000
H     6.360000000    -1.608000000    -0.602000000
O    -6.395000000    -0.042000000    -2.129000000
H    -5.788000000     0.632000000    -2.435000000
H    -6.764000000    -0.413000000    -2.931000000
O    -0.971000000     4.517000000     0.935000000
H    -1.425000000     5.125000000     0.351000000
H    -0.074000000     4.490000000     0.603000000
O    -0.489000000    -5.343000000     2.517000000
H     0.127000000    -4.906000000     3.106000000
H    -0.772000000    -4.655000000     1.914000000
O     2.213000000     3.738000000    -4.197000000
H     2.009000000     3.445000000    -5.085000000
H     1.373000000     4.024000000    -3.839000000
O     2.100000000     1.222000000     5.762000000
H     2.704000000     1.830000000     5.335000000
H     1.237000000     1.617000000     5.640000000
O     3.225000000     6.901000000     1.896000000
H     3.357000000     7.788000000     2.231000000
H     2.280000000     6.832000000     1.765000000
O     1.735000000     5.701000000     5.427000000
H     2.476000000     5.210000000     5.783000000
H     1.467000000     5.204000000     4.654000000
O     1.989000000    -2.492000000     1.774000000
H     1.671000000    -2.387000000     2.671000000
H     1.198000000    -2.641000000     1.255000000
O    -1.031000000    -0.673000000    -7.208000000
H    -0.564000000     0.160000000    -7.145000000
H    -1.121000000    -0.967000000    -6.302000000
O    -0.697000000    -3.160000000    -3.204000000
H    -1.475000000    -3.051000000    -2.656000000
H    -0.267000000    -3.942000000    -2.856000000
O    -3.370000000     0.465000000     4.299000000
H    -3.192000000     1.367000000     4.566000000
H    -2.605000000    -0.028000000     4.599000000
O     5.086000000    -0.662000000     0.522000000
H     4.322000000    -1.180000000     0.268000000
H     4.755000000     0.233000000     0.595000000
O    -2.307000000     2.141000000    -0.324000000
H    -1.953000000     1.265000000    -0.172000000
H    -1.631000000     2.733000000     0.007000000
O     4.030000000     2.543000000     4.144000000
H     4.593000000     1.818000000     3.872000000
H     3.551000000     2.784000000     3.351000000
O     4.182000000     1.929000000    -2.211000000
H     3.960000000     1.607000000    -1.337000000
H     3.404000000     2.410000000    -2.494000000
O    -1.851000000     2.096000000    -3.805000000
H    -1.236000000     2.157000000    -3.074000000
H    -1.381000000     1.598000000    -4.473000000
O     7.318000000     1.475000000    -1.766000000
H     6.426000000     1.811000000    -1.853000000
H     7.638000000     1.855000000    -0.948000000
O     7.233000000     3.226000000     3.325000000
H     6.666000000     2.457000000     3.272000000
H     6.629000000     3.963000000     3.415000000
O     4.380000000     5.506000000    -0.222000000
H     4.104000000     5.904000000     0.604000000
H     4.585000000     6.249000000    -0.789000000
O    -1.894000000    -3.751000000     0.690000000
H    -1.884000000    -4.106000000    -0.199000000
H    -2.399000000    -2.941000000     0.618000000
O     5.874000000     0.582000000     3.561000000
H     6.603000000    -0.002000000     3.351000000
H     5.106000000     0.010000000     3.575000000
O     1.148000000    -3.690000000     4.252000000
H     0.954000000    -4.009000000     5.134000000
H     1.158000000    -2.737000000     4.339000000
O    -4.776000000    -1.429000000    -0.046000000
H    -4.960000000    -1.009000000     0.794000000
H    -5.333000000    -0.967000000    -0.673000000
O    -1.526000000    -1.157000000     5.464000000
H    -1.426000000    -1.471000000     6.362000000
H    -0.633000000    -1.124000000     5.120000000
O     5.249000000     5.208000000     2.942000000
H     5.510000000     4.637000000     2.219000000
H     4.359000000     5.483000000     2.720000000
O    -4.296000000     1.735000000    -2.046000000
H    -3.720000000     1.802000000    -2.807000000
H    -3.720000000     1.877000000    -1.295000000
O     2.673000000     0.140000000    -5.257000000
H     3.319000000     0.394000000    -4.598000000
H     2.652000000    -0.816000000    -5.216000000
O     0.143000000     3.161000000     5.964000000
H     0.540000000     3.734000000     5.308000000
H    -0.743000000     3.001000000     5.639000000
O    -3.882000000    -3.548000000     4.747000000
H    -3.315000000    -3.817000000     5.469000000
H    -3.795000000    -2.595000000     4.716000000
O     0.401000000    -5.317000000    -2.160000000
H     0.959000000    -5.731000000    -2.819000000
H     0.497000000    -5.870000000    -1.385000000
