158
-3022.21118
C    -0.927000000     1.129000000     0.449000000
H    -1.582000000     1.882000000     0.878000000
C    -0.978000000    -0.197000000     0.902000000
H    -1.728000000    -0.483000000     1.636000000
C    -0.073000000    -1.154000000     0.389000000
H    -0.167000000    -2.188000000     0.710000000
C     0.878000000    -0.797000000    -0.533000000
H     1.469000000    -1.514000000    -1.098000000
C     0.887000000     0.569000000    -0.995000000
H     1.784000000     0.801000000    -1.564000000
C     0.031000000     1.511000000    -0.486000000
C     0.100000000     2.886000000    -0.924000000
O    -0.510000000     3.789000000    -0.388000000
O     0.820000000     3.247000000    -1.806000000
O    -4.491000000    -5.691000000    -0.105000000
H    -3.624000000    -5.907000000    -0.448000000
H    -4.426000000    -4.770000000     0.148000000
O     0.929000000    -6.419000000     3.757000000
H     1.558000000    -6.923000000     4.273000000
H     0.078000000    -6.640000000     4.134000000
O     0.384000000     3.125000000    -7.053000000
H    -0.411000000     2.635000000    -7.264000000
H     0.419000000     3.123000000    -6.096000000
O     5.695000000     0.552000000     1.681000000
H     5.032000000    -0.119000000     1.515000000
H     6.427000000     0.310000000     1.114000000
O     3.271000000    -2.344000000     2.468000000
H     2.588000000    -1.684000000     2.589000000
H     2.802000000    -3.178000000     2.470000000
O     0.301000000     0.148000000     5.385000000
H     0.342000000     0.867000000     6.016000000
H     0.902000000    -0.510000000     5.733000000
O    -2.744000000     7.335000000    -1.083000000
H    -2.927000000     6.530000000    -1.569000000
H    -1.881000000     7.189000000    -0.696000000
O     1.465000000    -4.416000000     1.999000000
H     1.387000000    -5.167000000     2.587000000
H     1.181000000    -4.749000000     1.147000000
O     2.686000000     1.222000000    -4.374000000
H     2.519000000     1.521000000    -3.481000000
H     3.380000000     1.799000000    -4.694000000
O    -3.446000000    -6.339000000     2.449000000
H    -3.309000000    -7.174000000     2.000000000
H    -3.177000000    -5.678000000     1.811000000
O    -1.165000000    -4.332000000     4.368000000
H    -1.833000000    -4.625000000     4.987000000
H    -0.351000000    -4.717000000     4.693000000
O     0.415000000     3.665000000     2.117000000
H     0.215000000     3.712000000     1.182000000
H     1.254000000     3.206000000     2.159000000
O     3.922000000     6.257000000    -2.441000000
H     4.076000000     7.176000000    -2.221000000
H     3.178000000     6.277000000    -3.043000000
O     3.500000000     3.238000000    -2.527000000
H     2.654000000     3.495000000    -2.160000000
H     4.011000000     2.950000000    -1.771000000
O    -4.072000000    -3.075000000     0.965000000
H    -4.620000000    -2.787000000     1.695000000
H    -3.268000000    -3.389000000     1.379000000
O    -1.015000000     6.096000000     0.633000000
H    -0.121000000     6.378000000     0.826000000
H    -0.913000000     5.226000000     0.247000000
O     1.739000000     6.007000000    -4.033000000
H     2.359000000     5.965000000    -4.761000000
H     1.023000000     5.429000000    -4.294000000
O     4.962000000     0.166000000    -1.543000000
H     5.897000000     0.007000000    -1.674000000
H     4.533000000    -0.351000000    -2.225000000
O    -2.191000000    -1.169000000     4.420000000
H    -1.477000000    -1.052000000     5.046000000
H    -2.076000000    -2.060000000     4.088000000
O     1.624000000    -0.171000000     2.646000000
H     0.972000000    -0.138000000     3.346000000
H     1.111000000    -0.119000000     1.839000000
O     1.374000000     4.323000000     4.578000000
H     1.074000000     4.027000000     3.719000000
H     2.325000000     4.394000000     4.490000000
O    -1.914000000     3.539000000     3.445000000
H    -1.180000000     3.785000000     2.881000000
H    -1.933000000     4.214000000     4.123000000
O    -3.630000000     1.061000000     3.615000000
H    -2.966000000     0.374000000     3.654000000
H    -3.130000000     1.877000000     3.597000000
O     1.434000000    -2.962000000    -3.467000000
H     0.599000000    -2.494000000    -3.435000000
H     1.191000000    -3.887000000    -3.438000000
O    -1.794000000    -4.035000000     1.629000000
H    -1.448000000    -4.116000000     2.518000000
H    -1.091000000    -4.362000000     1.069000000
O    -5.448000000     4.961000000    -0.705000000
H    -5.074000000     4.749000000    -1.561000000
H    -4.898000000     4.489000000    -0.080000000
O    -3.446000000    -3.083000000    -3.734000000
H    -4.225000000    -2.774000000    -3.271000000
H    -2.721000000    -2.608000000    -3.326000000
O    -3.582000000     3.991000000     0.969000000
H    -3.184000000     3.971000000     1.839000000
H    -2.839000000     3.997000000     0.365000000
O     4.547000000     3.797000000    -5.230000000
H     4.077000000     3.876000000    -4.400000000
H     5.438000000     4.084000000    -5.030000000
O     4.783000000     2.607000000    -0.238000000
H     4.256000000     2.586000000     0.561000000
H     5.022000000     1.693000000    -0.391000000
O    -0.197000000     3.660000000    -4.176000000
H    -0.858000000     2.980000000    -4.047000000
H     0.312000000     3.656000000    -3.365000000
O    -2.076000000     2.105000000    -2.880000000
H    -2.888000000     1.617000000    -3.016000000
H    -1.743000000     1.787000000    -2.041000000
O     1.176000000     8.062000000     0.716000000
H     1.688000000     7.402000000     0.249000000
H     1.781000000     8.418000000     1.367000000
O    -0.042000000    -5.624000000    -0.052000000
H    -0.882000000    -6.037000000    -0.254000000
H     0.554000000    -6.357000000     0.104000000
O     2.983000000     2.700000000     2.296000000
H     3.725000000     3.262000000     2.524000000
H     3.374000000     1.843000000     2.130000000
O     4.190000000    -5.812000000    -2.425000000
H     3.886000000    -6.460000000    -1.790000000
H     4.277000000    -5.004000000    -1.918000000
O     5.374000000    -2.983000000    -2.155000000
H     6.068000000    -2.330000000    -2.251000000
H     4.632000000    -2.616000000    -2.635000000
O    -4.495000000     0.737000000     0.953000000
H    -4.499000000     1.671000000     0.741000000
H    -4.230000000     0.702000000     1.872000000
O    -3.099000000     5.393000000    -2.877000000
H    -2.806000000     4.545000000    -2.542000000
H    -3.430000000     5.202000000    -3.754000000
O     5.470000000    -2.407000000     0.712000000
H     5.070000000    -2.497000000    -0.153000000
H     4.731000000    -2.414000000     1.320000000
O     3.768000000    -1.413000000    -3.589000000
H     2.967000000    -1.938000000    -3.567000000
H     3.679000000    -0.874000000    -4.375000000
O    -3.719000000    -1.196000000    -0.840000000
H    -3.733000000    -2.020000000    -0.354000000
H    -4.141000000    -0.566000000    -0.256000000
O     1.801000000     5.654000000    -0.760000000
H     1.342000000     4.824000000    -0.889000000
H     2.595000000     5.574000000    -1.289000000
O     0.258000000     7.748000000    -2.052000000
H     0.325000000     8.098000000    -1.163000000
H     0.924000000     7.062000000    -2.091000000
O     0.186000000    -0.369000000    -5.004000000
H    -0.560000000     0.219000000    -4.889000000
H     0.935000000     0.126000000    -4.673000000
O    -2.272000000    -7.097000000    -1.079000000
H    -2.397000000    -7.825000000    -0.470000000
H    -2.523000000    -7.453000000    -1.932000000
O    -1.249000000    -1.792000000    -2.309000000
H    -1.759000000    -1.864000000    -1.501000000
H    -0.494000000    -1.255000000    -2.068000000
O    -2.997000000     7.457000000     1.828000000
H    -3.152000000     6.746000000     2.451000000
H    -2.393000000     7.085000000     1.186000000
