158
-3036.16373
C    -0.056000000     1.088000000     1.042000000
H    -0.052000000     1.836000000     1.831000000
C     0.158000000    -0.253000000     1.361000000
H     0.349000000    -0.434000000     2.416000000
C     0.183000000    -1.166000000     0.328000000
H     0.455000000    -2.290000000     0.476000000
C    -0.046000000    -0.788000000    -0.973000000
H     0.072000000    -1.562000000    -1.727000000
C    -0.224000000     0.538000000    -1.261000000
H    -0.404000000     0.839000000    -2.290000000
C    -0.301000000     1.534000000    -0.274000000
C    -0.475000000     2.968000000    -0.702000000
O    -0.879000000     3.830000000     0.105000000
O    -0.234000000     3.312000000    -1.855000000
O     3.611000000    -7.133000000     1.482000000
H     2.717000000    -7.031000000     1.157000000
H     3.513000000    -7.602000000     2.311000000
O     1.373000000     5.513000000    -5.662000000
H     0.914000000     6.310000000    -5.395000000
H     1.380000000     4.966000000    -4.877000000
O    -2.430000000    -1.003000000    -5.908000000
H    -2.898000000    -1.664000000    -5.398000000
H    -3.119000000    -0.436000000    -6.255000000
O     3.650000000    -1.519000000     5.034000000
H     3.394000000    -0.714000000     5.483000000
H     3.760000000    -1.259000000     4.120000000
O     1.387000000     0.853000000     6.873000000
H     0.972000000     1.023000000     7.719000000
H     0.688000000     0.982000000     6.233000000
O     1.024000000    -4.225000000    -1.127000000
H     1.600000000    -4.223000000    -0.362000000
H     1.250000000    -3.423000000    -1.599000000
O    -1.193000000    -3.768000000     3.309000000
H    -1.250000000    -2.831000000     3.499000000
H    -1.897000000    -4.160000000     3.825000000
O    -0.181000000    -2.276000000    -4.577000000
H    -0.792000000    -2.694000000    -3.970000000
H    -0.731000000    -1.711000000    -5.120000000
O    -4.447000000    -2.948000000     1.928000000
H    -3.603000000    -2.709000000     1.546000000
H    -4.966000000    -2.145000000     1.883000000
O    -0.759000000     4.568000000     5.454000000
H    -0.487000000     5.316000000     4.923000000
H    -1.220000000     4.957000000     6.197000000
O     1.761000000     4.017000000    -3.243000000
H     2.002000000     4.850000000    -2.839000000
H     1.102000000     3.647000000    -2.655000000
O     3.880000000    -5.835000000    -1.980000000
H     3.433000000    -5.705000000    -1.144000000
H     3.642000000    -6.724000000    -2.243000000
O    -0.192000000     7.550000000     2.686000000
H     0.276000000     6.788000000     2.346000000
H     0.251000000     7.755000000     3.510000000
O    -3.651000000     6.630000000     3.331000000
H    -3.539000000     5.725000000     3.038000000
H    -4.424000000     6.606000000     3.895000000
O     2.779000000    -2.474000000    -4.649000000
H     1.872000000    -2.469000000    -4.342000000
H     3.024000000    -1.549000000    -4.684000000
O     3.396000000     3.496000000    -0.596000000
H     3.850000000     4.281000000    -0.904000000
H     2.868000000     3.216000000    -1.343000000
O    -1.799000000     5.756000000    -1.610000000
H    -1.904000000     6.247000000    -0.795000000
H    -1.325000000     4.964000000    -1.353000000
O     2.612000000     2.714000000     1.874000000
H     3.137000000     3.128000000     1.189000000
H     2.598000000     1.787000000     1.636000000
O    -0.254000000     1.563000000     4.921000000
H    -0.450000000     1.571000000     3.984000000
H    -0.209000000     2.487000000     5.164000000
O    -1.595000000    -7.882000000     2.012000000
H    -1.398000000    -7.752000000     2.940000000
H    -1.575000000    -7.002000000     1.637000000
O    -3.835000000     3.876000000     5.129000000
H    -4.679000000     4.201000000     4.816000000
H    -3.319000000     3.745000000     4.334000000
O     5.416000000    -2.268000000    -1.239000000
H     6.174000000    -2.851000000    -1.291000000
H     5.791000000    -1.388000000    -1.230000000
O    -4.999000000     1.827000000     1.630000000
H    -4.219000000     2.383000000     1.631000000
H    -4.744000000     1.057000000     2.140000000
O    -1.538000000    -1.304000000     4.854000000
H    -0.662000000    -1.440000000     5.216000000
H    -1.899000000    -0.580000000     5.366000000
O     4.052000000    -4.548000000     2.929000000
H     3.947000000    -5.485000000     2.762000000
H     3.250000000    -4.294000000     3.385000000
O     3.861000000     3.486000000     4.361000000
H     3.491000000     3.251000000     3.510000000
H     3.238000000     4.112000000     4.729000000
O    -3.107000000     3.911000000     1.989000000
H    -3.695000000     4.073000000     1.252000000
H    -2.232000000     3.910000000     1.601000000
O     1.734000000     2.180000000    -5.789000000
H     2.153000000     2.613000000    -5.045000000
H     0.805000000     2.155000000    -5.560000000
O     0.902000000     5.170000000     2.039000000
H     0.224000000     4.760000000     1.503000000
H     1.455000000     4.442000000     2.324000000
O    -3.655000000     1.556000000    -4.010000000
H    -4.295000000     0.863000000    -4.173000000
H    -3.716000000     1.723000000    -3.069000000
O     4.872000000    -0.505000000     2.627000000
H     5.527000000    -1.059000000     2.203000000
H     4.358000000    -0.145000000     1.904000000
O    -0.671000000     2.678000000    -4.294000000
H    -1.621000000     2.584000000    -4.368000000
H    -0.520000000     2.860000000    -3.366000000
O    -4.866000000     1.315000000    -1.308000000
H    -5.504000000     1.846000000    -1.784000000
H    -5.063000000     1.474000000    -0.385000000
O    -2.333000000     7.031000000     0.888000000
H    -1.567000000     7.257000000     1.416000000
H    -3.045000000     6.947000000     1.522000000
O    -1.096000000    -5.513000000     0.987000000
H    -1.605000000    -5.230000000     0.227000000
H    -1.093000000    -4.753000000     1.569000000
O     3.391000000    -0.711000000    -2.663000000
H     4.011000000     0.018000000    -2.684000000
H     3.926000000    -1.474000000    -2.442000000
O     0.834000000    -2.046000000     6.373000000
H     1.130000000    -1.142000000     6.487000000
H     1.642000000    -2.557000000     6.322000000
O     1.148000000    -6.979000000     0.213000000
H     1.030000000    -6.449000000    -0.576000000
H     0.455000000    -6.684000000     0.805000000
O     3.036000000     0.007000000     0.731000000
H     3.309000000    -0.126000000    -0.177000000
H     2.093000000    -0.154000000     0.723000000
O    -4.029000000     4.584000000    -0.498000000
H    -3.247000000     5.054000000    -0.788000000
H    -4.103000000     3.847000000    -1.104000000
O     1.534000000    -4.300000000     4.342000000
H     1.529000000    -4.583000000     5.256000000
H     0.628000000    -4.049000000     4.163000000
O     3.325000000    -3.763000000     0.037000000
H     3.839000000    -3.140000000    -0.477000000
H     3.911000000    -4.032000000     0.744000000
O    -2.708000000    -4.073000000    -0.802000000
H    -2.768000000    -3.118000000    -0.790000000
H    -3.485000000    -4.368000000    -0.326000000
O     1.314000000     6.279000000    -1.177000000
H     0.586000000     5.676000000    -1.021000000
H     1.106000000     7.047000000    -0.645000000
O    -1.142000000     6.615000000    -4.096000000
H    -1.278000000     6.034000000    -3.347000000
H    -1.419000000     6.099000000    -4.853000000
O    -3.258000000    -2.380000000    -3.688000000
H    -3.273000000    -2.281000000    -2.736000000
H    -4.142000000    -2.672000000    -3.912000000
O    -3.987000000    -1.475000000    -1.298000000
H    -4.221000000    -0.586000000    -1.564000000
H    -4.774000000    -1.811000000    -0.868000000
O    -1.152000000    -4.853000000    -2.977000000
H    -1.803000000    -4.580000000    -2.330000000
H    -0.326000000    -4.866000000    -2.493000000
