158
-2999.04883
C    -0.058000000     1.283000000     0.757000000
H    -0.171000000     2.219000000     1.299000000
C     0.170000000     0.019000000     1.367000000
H     0.401000000    -0.006000000     2.429000000
C     0.276000000    -1.128000000     0.562000000
H     0.471000000    -2.031000000     0.981000000
C     0.087000000    -0.988000000    -0.817000000
H     0.275000000    -1.853000000    -1.449000000
C    -0.242000000     0.260000000    -1.380000000
H    -0.439000000     0.351000000    -2.445000000
C    -0.314000000     1.436000000    -0.649000000
C    -0.683000000     2.772000000    -1.321000000
O    -0.854000000     3.729000000    -0.646000000
O    -0.965000000     2.780000000    -2.505000000
O     2.794000000    -1.990000000     3.964000000
H     2.826000000    -2.947000000     3.960000000
H     1.921000000    -1.780000000     4.295000000
O     3.127000000     0.767000000     3.469000000
H     2.246000000     1.027000000     3.738000000
H     3.160000000    -0.175000000     3.636000000
O     3.088000000    -4.723000000    -0.307000000
H     2.477000000    -3.992000000    -0.210000000
H     3.932000000    -4.368000000    -0.027000000
O    -3.371000000    -2.750000000     4.950000000
H    -4.042000000    -2.966000000     4.302000000
H    -2.709000000    -2.265000000     4.457000000
O    -1.091000000     5.607000000     3.809000000
H    -0.651000000     6.398000000     3.497000000
H    -2.017000000     5.848000000     3.847000000
O    -4.592000000     4.920000000    -5.656000000
H    -4.583000000     4.250000000    -6.339000000
H    -4.005000000     4.582000000    -4.980000000
O     1.146000000    -3.987000000     2.520000000
H     0.815000000    -3.165000000     2.881000000
H     0.739000000    -4.666000000     3.058000000
O     0.347000000    -2.931000000    -4.218000000
H     0.572000000    -3.666000000    -3.647000000
H    -0.571000000    -2.744000000    -4.018000000
O    -0.656000000    -4.666000000     5.013000000
H    -1.275000000    -4.850000000     5.720000000
H    -0.495000000    -3.725000000     5.075000000
O    -1.492000000     2.904000000     3.505000000
H    -0.622000000     2.638000000     3.802000000
H    -1.497000000     3.856000000     3.598000000
O     1.303000000     3.760000000    -3.898000000
H     0.655000000     3.702000000    -3.196000000
H     0.913000000     4.357000000    -4.536000000
O    -3.682000000     5.509000000     1.631000000
H    -3.493000000     6.387000000     1.963000000
H    -4.499000000     5.608000000     1.143000000
O    -2.375000000    -2.630000000     0.035000000
H    -2.987000000    -3.201000000    -0.428000000
H    -2.422000000    -1.797000000    -0.434000000
O     5.735000000    -1.515000000     3.348000000
H     4.830000000    -1.223000000     3.245000000
H     5.702000000    -2.153000000     4.061000000
O    -1.997000000     5.030000000    -4.138000000
H    -2.597000000     5.635000000    -3.702000000
H    -1.716000000     4.431000000    -3.447000000
O    -4.075000000    -0.787000000    -6.083000000
H    -3.675000000    -0.252000000    -5.398000000
H    -3.631000000    -0.518000000    -6.887000000
O     3.025000000     2.546000000     1.251000000
H     3.676000000     2.411000000     0.563000000
H     3.017000000     1.722000000     1.738000000
O     0.734000000     1.954000000     4.903000000
H     0.461000000     1.209000000     5.438000000
H     0.363000000     2.717000000     5.346000000
O     0.367000000    -8.109000000     1.400000000
H     0.904000000    -7.703000000     2.081000000
H    -0.159000000    -7.391000000     1.049000000
O    -3.746000000     1.226000000     3.678000000
H    -3.832000000     1.150000000     4.628000000
H    -2.940000000     1.726000000     3.550000000
O    -2.502000000    -1.641000000     2.639000000
H    -3.259000000    -1.109000000     2.394000000
H    -2.310000000    -2.159000000     1.857000000
O     0.020000000    -2.049000000     3.811000000
H    -0.091000000    -1.431000000     4.534000000
H    -0.704000000    -1.855000000     3.216000000
O     5.309000000    -5.949000000     2.224000000
H     6.028000000    -6.293000000     1.694000000
H     5.031000000    -5.157000000     1.765000000
O    -1.093000000     7.495000000    -2.532000000
H    -0.507000000     8.155000000    -2.161000000
H    -1.037000000     6.757000000    -1.925000000
O    -3.214000000     2.771000000     0.727000000
H    -3.122000000     3.049000000     1.638000000
H    -2.576000000     3.301000000     0.249000000
O     0.700000000    -0.793000000    -5.952000000
H     1.167000000    -0.200000000    -5.363000000
H     0.610000000    -1.605000000    -5.452000000
O     2.123000000     1.020000000    -4.279000000
H     2.447000000     0.633000000    -3.466000000
H     1.564000000     1.743000000    -3.994000000
O     0.434000000     7.537000000     2.038000000
H     1.218000000     8.014000000     1.764000000
H     0.608000000     6.629000000     1.791000000
O     1.457000000     4.821000000     1.282000000
H     0.708000000     4.303000000     0.988000000
H     2.151000000     4.178000000     1.428000000
O    -2.931000000     0.848000000    -3.835000000
H    -2.955000000     0.726000000    -2.886000000
H    -3.820000000     1.120000000    -4.064000000
O     6.435000000    -2.167000000     0.441000000
H     5.839000000    -1.948000000     1.157000000
H     6.287000000    -1.482000000    -0.212000000
O    -1.346000000     2.500000000    -5.441000000
H    -1.650000000     1.936000000    -4.730000000
H    -1.566000000     3.387000000    -5.153000000
O    -2.230000000     5.998000000    -0.617000000
H    -2.534000000     5.756000000     0.258000000
H    -1.559000000     5.348000000    -0.826000000
O    -1.209000000    -5.491000000     0.578000000
H    -0.905000000    -5.626000000    -0.320000000
H    -1.108000000    -4.550000000     0.726000000
O    -4.038000000    -6.049000000     1.023000000
H    -3.278000000    -5.896000000     1.584000000
H    -4.130000000    -5.242000000     0.518000000
O    -0.500000000    -0.277000000     5.870000000
H    -1.357000000    -0.289000000     6.295000000
H     0.113000000    -0.528000000     6.561000000
O     3.490000000    -3.083000000    -3.385000000
H     2.679000000    -2.813000000    -3.816000000
H     3.900000000    -2.262000000    -3.112000000
O     3.164000000    -2.096000000     1.202000000
H     2.493000000    -1.465000000     0.944000000
H     2.998000000    -2.256000000     2.131000000
O    -4.606000000     4.060000000    -2.188000000
H    -4.002000000     3.433000000    -1.789000000
H    -5.425000000     3.575000000    -2.287000000
O     2.346000000    -6.837000000     2.629000000
H     2.584000000    -6.803000000     3.555000000
H     2.618000000    -5.988000000     2.280000000
O    -1.825000000     8.769000000     0.762000000
H    -1.700000000     9.053000000     1.668000000
H    -1.317000000     7.961000000     0.692000000
O    -1.318000000    -5.449000000    -2.419000000
H    -1.717000000    -4.580000000    -2.455000000
H    -2.060000000    -6.054000000    -2.451000000
O     1.850000000     5.960000000    -1.729000000
H     1.789000000     5.274000000    -1.064000000
H     2.050000000     6.755000000    -1.235000000
O    -0.545000000     5.694000000    -6.177000000
H    -1.099000000     5.524000000    -5.415000000
H    -0.836000000     5.059000000    -6.832000000
O    -2.194000000    -2.584000000    -3.008000000
H    -2.043000000    -1.682000000    -2.725000000
H    -3.104000000    -2.592000000    -3.305000000
O    -3.571000000     0.235000000    -0.967000000
H    -3.166000000     0.872000000    -0.379000000
H    -4.495000000     0.233000000    -0.718000000
O    -4.139000000     6.826000000    -2.625000000
H    -4.917000000     6.289000000    -2.471000000
H    -3.543000000     6.594000000    -1.913000000
O     1.369000000    -5.158000000    -2.780000000
H     0.437000000    -5.378000000    -2.791000000
H     1.692000000    -5.525000000    -1.957000000
