158
-3006.28338
C    -1.063000000     0.732000000     0.609000000
H    -1.822000000     1.192000000     1.236000000
C    -0.667000000    -0.504000000     0.915000000
H    -1.101000000    -1.038000000     1.756000000
C     0.206000000    -1.230000000     0.150000000
H     0.437000000    -2.307000000     0.359000000
C     0.891000000    -0.597000000    -0.909000000
H     1.560000000    -1.082000000    -1.615000000
C     0.593000000     0.743000000    -1.117000000
H     1.098000000     1.309000000    -1.896000000
C    -0.434000000     1.439000000    -0.373000000
C    -0.851000000     2.891000000    -0.604000000
O    -1.630000000     3.490000000     0.145000000
O    -0.453000000     3.456000000    -1.544000000
O    -3.984000000    -4.298000000    -1.210000000
H    -4.821000000    -4.549000000    -0.819000000
H    -3.847000000    -3.395000000    -0.924000000
O    -1.552000000    -6.214000000     3.628000000
H    -0.900000000    -5.765000000     4.166000000
H    -2.086000000    -6.700000000     4.257000000
O     2.365000000    -6.706000000     0.228000000
H     2.214000000    -6.797000000    -0.713000000
H     2.888000000    -7.473000000     0.462000000
O     5.890000000    -1.921000000     3.328000000
H     4.951000000    -2.091000000     3.405000000
H     5.946000000    -1.115000000     2.815000000
O     2.585000000    -0.500000000     2.352000000
H     3.321000000    -0.408000000     1.747000000
H     2.115000000     0.331000000     2.286000000
O     1.621000000    -4.083000000    -5.653000000
H     1.930000000    -3.997000000    -4.751000000
H     1.844000000    -3.247000000    -6.063000000
O    -5.657000000    -3.117000000     2.132000000
H    -6.367000000    -2.614000000     1.733000000
H    -4.860000000    -2.653000000     1.874000000
O    -1.925000000    -3.957000000     1.884000000
H    -1.941000000    -3.173000000     2.433000000
H    -1.654000000    -4.659000000     2.477000000
O     1.258000000    -1.458000000    -6.386000000
H     0.774000000    -1.001000000    -5.698000000
H     0.819000000    -1.204000000    -7.197000000
O    -6.835000000     1.028000000     1.197000000
H    -7.329000000     0.451000000     1.780000000
H    -5.921000000     0.894000000     1.445000000
O     6.592000000    -4.464000000     0.727000000
H     7.067000000    -3.677000000     0.460000000
H     5.698000000    -4.161000000     0.886000000
O    -0.191000000     4.469000000     2.225000000
H    -0.785000000     4.277000000     2.951000000
H    -0.580000000     4.024000000     1.473000000
O     0.277000000     7.157000000    -5.010000000
H     0.784000000     6.698000000    -4.340000000
H     0.577000000     6.781000000    -5.837000000
O     0.762000000     7.147000000     3.081000000
H     1.616000000     6.830000000     3.375000000
H     0.364000000     6.394000000     2.644000000
O     3.917000000    -1.854000000    -5.472000000
H     2.995000000    -1.784000000    -5.721000000
H     4.178000000    -0.956000000    -5.268000000
O     1.433000000     5.057000000    -3.158000000
H     0.897000000     4.452000000    -2.645000000
H     2.301000000     5.006000000    -2.757000000
O    -3.604000000     5.447000000    -0.128000000
H    -3.893000000     5.414000000     0.784000000
H    -2.761000000     4.995000000    -0.129000000
O     3.672000000     1.136000000    -2.610000000
H     4.137000000     0.845000000    -3.394000000
H     3.971000000     0.542000000    -1.921000000
O     1.040000000    -7.663000000     2.920000000
H     0.460000000    -8.393000000     3.137000000
H     0.534000000    -7.129000000     2.308000000
O     1.370000000     2.148000000     2.621000000
H     0.685000000     1.756000000     3.162000000
H     0.993000000     2.974000000     2.318000000
O    -0.165000000    -7.570000000     0.220000000
H     0.786000000    -7.491000000     0.303000000
H    -0.433000000    -6.771000000    -0.234000000
O    -2.376000000     3.557000000     3.691000000
H    -2.520000000     3.089000000     4.513000000
H    -3.148000000     4.116000000     3.595000000
O     2.722000000    -6.003000000     4.233000000
H     2.533000000    -5.197000000     3.751000000
H     2.055000000    -6.621000000     3.937000000
O    -1.868000000    -1.518000000    -2.745000000
H    -1.190000000    -0.962000000    -2.362000000
H    -1.520000000    -1.766000000    -3.601000000
O    -1.245000000    -2.556000000     4.552000000
H    -0.889000000    -3.159000000     5.205000000
H    -1.100000000    -1.687000000     4.925000000
O     3.829000000    -3.650000000     0.815000000
H     3.563000000    -4.569000000     0.799000000
H     3.216000000    -3.234000000     1.421000000
O    -5.189000000     4.332000000     2.719000000
H    -5.819000000     4.151000000     2.021000000
H    -5.669000000     4.883000000     3.337000000
O    -3.929000000     2.133000000     1.549000000
H    -4.153000000     2.652000000     2.321000000
H    -3.280000000     2.663000000     1.085000000
O     1.698000000     3.045000000    -5.324000000
H     1.650000000     3.828000000    -4.776000000
H     1.966000000     2.349000000    -4.724000000
O     3.652000000     3.935000000    -1.793000000
H     3.784000000     3.780000000    -0.858000000
H     3.584000000     3.059000000    -2.174000000
O    -1.510000000     4.119000000    -3.831000000
H    -2.326000000     3.618000000    -3.820000000
H    -1.088000000     3.907000000    -2.999000000
O    -3.975000000     2.887000000    -3.688000000
H    -4.269000000     2.697000000    -4.578000000
H    -3.754000000     2.031000000    -3.320000000
O    -1.427000000     8.383000000     0.471000000
H    -1.153000000     7.535000000     0.122000000
H    -0.617000000     8.891000000     0.529000000
O    -1.057000000    -4.921000000    -0.548000000
H    -1.510000000    -4.638000000    -1.342000000
H    -1.431000000    -4.379000000     0.147000000
O    -0.054000000     0.465000000     4.256000000
H     0.280000000    -0.400000000     4.020000000
H    -0.359000000     0.366000000     5.158000000
O     3.788000000     0.846000000    -5.367000000
H     3.601000000     0.477000000    -6.230000000
H     4.276000000     1.648000000    -5.550000000
O     3.338000000     3.571000000     0.944000000
H     2.820000000     4.361000000     0.792000000
H     2.848000000     3.086000000     1.608000000
O     1.649000000    -5.963000000    -2.713000000
H     1.407000000    -5.050000000    -2.869000000
H     0.869000000    -6.352000000    -2.317000000
O     4.449000000    -1.481000000    -0.705000000
H     4.974000000    -1.810000000    -1.435000000
H     4.222000000    -2.263000000    -0.202000000
O    -4.396000000    -0.474000000     2.246000000
H    -4.038000000     0.378000000     1.997000000
H    -4.692000000    -0.355000000     3.148000000
O    -5.608000000     4.036000000    -1.754000000
H    -5.071000000     4.586000000    -1.184000000
H    -4.995000000     3.697000000    -2.407000000
O     2.033000000    -3.223000000     2.688000000
H     2.113000000    -2.274000000     2.585000000
H     1.090000000    -3.381000000     2.724000000
O     2.514000000    -3.250000000    -3.063000000
H     3.353000000    -2.949000000    -3.412000000
H     2.405000000    -2.761000000    -2.248000000
O    -4.273000000    -1.460000000    -0.538000000
H    -3.423000000    -1.083000000    -0.314000000
H    -4.893000000    -1.017000000     0.041000000
O    -0.389000000     6.436000000    -0.961000000
H    -0.708000000     5.534000000    -0.932000000
H     0.564000000     6.355000000    -0.935000000
O    -1.991000000     6.748000000    -3.167000000
H    -1.592000000     6.899000000    -2.310000000
H    -1.629000000     5.910000000    -3.456000000
O    -1.154000000    -0.374000000    -5.642000000
H    -1.661000000     0.161000000    -5.032000000
H    -1.811000000    -0.792000000    -6.198000000
O    -4.338000000     0.120000000    -2.933000000
H    -3.899000000    -0.621000000    -2.514000000
H    -5.076000000     0.318000000    -2.356000000
