158
-3049.64149
C    -1.164000000     0.762000000    -0.649000000
H    -1.996000000     1.219000000    -1.178000000
C    -0.884000000    -0.641000000    -0.800000000
H    -1.433000000    -1.309000000    -1.458000000
C     0.211000000    -1.209000000    -0.157000000
H     0.443000000    -2.239000000    -0.357000000
C     0.940000000    -0.466000000     0.788000000
H     1.735000000    -0.933000000     1.363000000
C     0.665000000     0.901000000     0.972000000
H     1.191000000     1.430000000     1.763000000
C    -0.388000000     1.538000000     0.255000000
C    -0.736000000     2.983000000     0.452000000
O    -1.586000000     3.567000000    -0.223000000
O    -0.066000000     3.574000000     1.284000000
O     4.680000000    -4.540000000    -3.163000000
H     5.174000000    -3.741000000    -3.344000000
H     4.095000000    -4.302000000    -2.443000000
O     1.791000000     5.588000000     5.115000000
H     2.502000000     5.259000000     5.665000000
H     1.630000000     4.884000000     4.486000000
O     1.338000000     0.733000000     4.376000000
H     0.848000000     0.017000000     3.972000000
H     2.256000000     0.498000000     4.247000000
O    -0.423000000    -5.788000000    -3.166000000
H     0.310000000    -6.223000000    -3.600000000
H    -1.172000000    -6.361000000    -3.330000000
O    -2.119000000     6.106000000    -0.231000000
H    -1.797000000     5.227000000    -0.034000000
H    -2.878000000     6.218000000     0.341000000
O    -4.052000000     5.643000000     1.836000000
H    -4.784000000     5.677000000     2.452000000
H    -3.301000000     5.387000000     2.371000000
O    -3.702000000    -2.317000000    -1.719000000
H    -4.389000000    -2.980000000    -1.781000000
H    -4.122000000    -1.577000000    -1.280000000
O     2.066000000     2.451000000    -2.700000000
H     1.682000000     2.930000000    -1.966000000
H     1.807000000     1.541000000    -2.554000000
O     2.287000000    -4.327000000     2.425000000
H     1.524000000    -4.847000000     2.171000000
H     2.552000000    -3.882000000     1.620000000
O    -1.761000000     6.790000000     4.501000000
H    -0.928000000     7.216000000     4.298000000
H    -1.638000000     5.882000000     4.224000000
O     1.577000000    -0.155000000    -2.510000000
H     0.825000000    -0.188000000    -3.101000000
H     1.283000000    -0.610000000    -1.721000000
O    -0.210000000    -5.793000000     1.483000000
H    -0.326000000    -6.572000000     0.939000000
H    -0.363000000    -5.060000000     0.887000000
O     4.320000000     0.278000000     3.679000000
H     4.752000000     1.132000000     3.693000000
H     4.386000000    -0.009000000     2.768000000
O     1.793000000     4.817000000    -0.174000000
H     1.263000000     4.186000000     0.313000000
H     1.162000000     5.459000000    -0.500000000
O     4.654000000     3.292000000     3.477000000
H     5.338000000     3.955000000     3.569000000
H     4.078000000     3.636000000     2.793000000
O    -1.181000000    -6.410000000     4.098000000
H    -2.064000000    -6.724000000     3.900000000
H    -0.776000000    -6.278000000     3.241000000
O    -0.057000000     1.935000000     6.869000000
H     0.403000000     1.647000000     6.081000000
H    -0.677000000     2.595000000     6.557000000
O     2.384000000    -3.305000000    -2.080000000
H     2.562000000    -3.013000000    -2.974000000
H     1.499000000    -2.989000000    -1.897000000
O    -4.102000000     1.212000000    -3.468000000
H    -4.572000000     0.792000000    -4.188000000
H    -4.517000000     2.071000000    -3.381000000
O    -0.107000000     8.182000000    -0.147000000
H    -0.865000000     7.603000000    -0.066000000
H     0.507000000     7.697000000    -0.698000000
O     4.398000000     5.092000000    -0.231000000
H     4.563000000     5.193000000    -1.169000000
H     3.457000000     4.933000000    -0.169000000
O    -4.820000000     4.011000000    -3.017000000
H    -4.148000000     4.688000000    -3.100000000
H    -5.088000000     4.051000000    -2.099000000
O     1.833000000    -2.031000000     4.119000000
H     1.985000000    -2.756000000     3.513000000
H     2.294000000    -2.286000000     4.918000000
O    -2.551000000     0.287000000     2.044000000
H    -2.569000000    -0.023000000     1.138000000
H    -2.040000000    -0.373000000     2.513000000
O    -5.111000000    -0.046000000    -0.989000000
H    -5.780000000    -0.092000000    -1.671000000
H    -4.809000000     0.862000000    -1.011000000
O    -6.858000000     2.532000000    -0.793000000
H    -5.957000000     2.448000000    -0.482000000
H    -7.106000000     1.645000000    -1.052000000
O    -1.401000000    -4.432000000    -1.011000000
H    -1.949000000    -3.690000000    -1.266000000
H    -1.283000000    -4.931000000    -1.819000000
O     1.430000000    -5.692000000    -1.044000000
H     0.654000000    -5.591000000    -1.594000000
H     1.916000000    -4.876000000    -1.163000000
O    -1.285000000    -1.463000000     4.055000000
H    -1.519000000    -2.254000000     4.541000000
H    -0.335000000    -1.516000000     3.953000000
O     1.130000000     6.857000000    -2.137000000
H     1.603000000     7.173000000    -2.907000000
H     0.789000000     6.001000000    -2.400000000
O    -1.859000000     4.494000000     3.039000000
H    -1.310000000     4.180000000     2.321000000
H    -2.559000000     3.844000000     3.108000000
O    -1.037000000     0.101000000    -3.947000000
H    -1.963000000     0.058000000    -3.707000000
H    -0.938000000    -0.559000000    -4.633000000
O     3.649000000    -2.715000000     0.520000000
H     3.576000000    -2.386000000    -0.376000000
H     3.955000000    -1.964000000     1.027000000
O    -4.336000000     2.774000000    -0.100000000
H    -3.446000000     3.105000000    -0.223000000
H    -4.428000000     2.681000000     0.848000000
O     0.674000000    -3.689000000    -6.538000000
H     1.148000000    -3.924000000    -7.335000000
H     1.329000000    -3.750000000    -5.843000000
O    -1.308000000     3.014000000    -4.593000000
H    -1.593000000     2.219000000    -4.143000000
H    -0.681000000     2.707000000    -5.248000000
O     4.591000000    -0.094000000     1.162000000
H     5.401000000    -0.480000000     0.831000000
H     4.635000000     0.824000000     0.892000000
O     2.078000000    -5.913000000    -4.495000000
H     2.798000000    -6.200000000    -5.057000000
H     2.489000000    -5.327000000    -3.859000000
O     4.512000000     0.268000000    -2.789000000
H     4.710000000     1.201000000    -2.717000000
H     3.639000000     0.178000000    -2.407000000
O    -3.282000000    -3.413000000    -4.807000000
H    -3.008000000    -2.617000000    -5.264000000
H    -3.460000000    -3.126000000    -3.912000000
O     0.739000000     7.681000000     3.757000000
H     0.957000000     7.610000000     2.827000000
H     1.160000000     6.921000000     4.160000000
O    -4.009000000     2.456000000     3.187000000
H    -3.584000000     1.599000000     3.208000000
H    -4.916000000     2.281000000     3.438000000
O     2.027000000    -7.908000000     0.335000000
H     1.807000000    -7.162000000    -0.224000000
H     2.699000000    -7.573000000     0.928000000
O    -0.371000000     4.664000000    -2.582000000
H    -0.370000000     3.843000000    -3.075000000
H    -1.083000000     4.563000000    -1.951000000
O     1.277000000     3.669000000     3.415000000
H     0.719000000     3.657000000     2.637000000
H     1.197000000     2.789000000     3.781000000
O     2.630000000    -2.677000000    -4.758000000
H     3.156000000    -3.375000000    -5.150000000
H     2.895000000    -1.886000000    -5.227000000
O    -2.667000000     6.178000000    -2.816000000
H    -2.009000000     5.657000000    -3.276000000
H    -2.453000000     6.071000000    -1.890000000
O    -3.057000000    -3.659000000     0.982000000
H    -3.305000000    -4.379000000     1.562000000
H    -2.493000000    -4.065000000     0.324000000
