158
-3040.56306
C     0.413000000     1.069000000    -0.947000000
H     0.673000000     1.700000000    -1.793000000
C     0.430000000    -0.334000000    -1.178000000
H     0.693000000    -0.765000000    -2.140000000
C     0.178000000    -1.246000000    -0.168000000
H     0.228000000    -2.359000000    -0.211000000
C    -0.146000000    -0.723000000     1.064000000
H    -0.467000000    -1.370000000     1.876000000
C    -0.283000000     0.691000000     1.234000000
H    -0.755000000     1.093000000     2.127000000
C    -0.105000000     1.583000000     0.251000000
C    -0.451000000     3.058000000     0.467000000
O    -0.800000000     3.688000000    -0.537000000
O    -0.675000000     3.553000000     1.582000000
O     4.495000000    -3.712000000    -1.796000000
H     3.990000000    -2.970000000    -1.462000000
H     4.663000000    -4.253000000    -1.024000000
O    -2.375000000    -4.757000000     5.474000000
H    -1.591000000    -4.507000000     4.985000000
H    -2.039000000    -5.183000000     6.263000000
O    -2.971000000     5.181000000     0.926000000
H    -2.220000000     4.667000000     0.632000000
H    -2.649000000     5.661000000     1.690000000
O    -2.270000000    -3.395000000    -2.487000000
H    -2.432000000    -4.310000000    -2.259000000
H    -1.345000000    -3.369000000    -2.731000000
O     1.677000000    -2.461000000     4.797000000
H     0.748000000    -2.255000000     4.898000000
H     2.120000000    -1.616000000     4.874000000
O    -0.949000000     1.625000000    -7.075000000
H    -0.095000000     1.952000000    -7.360000000
H    -0.781000000     1.231000000    -6.219000000
O    -2.693000000     0.197000000     5.224000000
H    -3.316000000     0.506000000     4.566000000
H    -2.519000000     0.965000000     5.768000000
O     2.684000000    -6.124000000    -0.657000000
H     1.983000000    -5.672000000    -1.126000000
H     3.056000000    -5.457000000    -0.080000000
O    -2.702000000     5.958000000     4.248000000
H    -1.823000000     6.068000000     3.887000000
H    -2.707000000     6.500000000     5.038000000
O     3.204000000     2.246000000    -0.513000000
H     2.827000000     1.375000000    -0.640000000
H     2.642000000     2.827000000    -1.026000000
O    -1.934000000     6.398000000    -3.788000000
H    -2.164000000     6.043000000    -2.929000000
H    -2.170000000     5.704000000    -4.404000000
O     3.472000000    -1.459000000    -0.102000000
H     3.134000000    -0.966000000    -0.850000000
H     2.706000000    -1.608000000     0.452000000
O     0.605000000    -6.516000000     3.969000000
H    -0.003000000    -5.829000000     3.698000000
H     0.686000000    -7.081000000     3.200000000
O     3.667000000    -0.354000000    -2.614000000
H     4.040000000    -0.554000000    -3.473000000
H     4.363000000     0.116000000    -2.155000000
O    -0.702000000    -4.063000000     3.350000000
H    -0.562000000    -3.231000000     3.803000000
H    -1.065000000    -3.814000000     2.500000000
O     4.812000000    -4.748000000    -4.171000000
H     4.071000000    -5.324000000    -4.356000000
H     4.700000000    -4.501000000    -3.253000000
O     1.455000000    -5.034000000    -2.886000000
H     1.068000000    -5.587000000    -3.565000000
H     1.199000000    -4.144000000    -3.129000000
O     1.845000000     4.242000000    -1.901000000
H     1.054000000     4.170000000    -1.367000000
H     1.528000000     4.507000000    -2.764000000
O    -2.752000000     3.274000000     3.417000000
H    -2.133000000     3.085000000     2.712000000
H    -2.557000000     4.175000000     3.672000000
O    -2.599000000     8.059000000     1.560000000
H    -2.220000000     8.885000000     1.862000000
H    -1.987000000     7.389000000     1.866000000
O    -2.322000000    -3.471000000     1.001000000
H    -3.120000000    -2.983000000     0.796000000
H    -2.034000000    -3.825000000     0.160000000
O    -5.525000000     4.442000000     3.188000000
H    -5.728000000     5.350000000     3.411000000
H    -4.569000000     4.399000000     3.202000000
O    -5.014000000     2.510000000     1.039000000
H    -5.632000000     3.162000000     1.371000000
H    -4.654000000     2.099000000     1.825000000
O    -2.689000000     0.814000000    -3.535000000
H    -2.892000000     1.491000000    -4.181000000
H    -2.614000000     1.289000000    -2.707000000
O     4.640000000     5.234000000    -3.282000000
H     4.636000000     4.816000000    -4.144000000
H     3.953000000     4.782000000    -2.793000000
O     2.145000000    -4.337000000     2.810000000
H     1.388000000    -4.879000000     3.031000000
H     2.205000000    -3.706000000     3.527000000
O    -4.354000000    -5.065000000     2.227000000
H    -4.162000000    -6.002000000     2.276000000
H    -3.496000000    -4.649000000     2.142000000
O    -5.711000000     5.790000000     0.081000000
H    -5.070000000     5.115000000     0.305000000
H    -6.204000000     5.419000000    -0.651000000
O    -4.111000000    -1.465000000    -3.195000000
H    -3.471000000    -0.753000000    -3.181000000
H    -3.583000000    -2.263000000    -3.165000000
O    -2.081000000     2.802000000     6.774000000
H    -1.866000000     3.127000000     5.900000000
H    -2.242000000     3.592000000     7.290000000
O     0.657000000     3.339000000     4.081000000
H     0.155000000     3.438000000     3.272000000
H     0.864000000     2.406000000     4.122000000
O     1.692000000     2.580000000    -5.534000000
H     1.152000000     3.335000000    -5.301000000
H     1.353000000     1.867000000    -4.993000000
O    -0.602000000     6.079000000     2.205000000
H     0.223000000     6.563000000     2.162000000
H    -0.416000000     5.250000000     1.763000000
O     0.067000000    -2.834000000    -4.227000000
H     0.729000000    -2.267000000    -4.621000000
H    -0.673000000    -2.795000000    -4.833000000
O     4.456000000    -4.405000000     0.967000000
H     3.636000000    -4.131000000     1.379000000
H     5.136000000    -4.135000000     1.585000000
O     1.756000000    -1.231000000    -5.751000000
H     2.644000000    -1.533000000    -5.559000000
H     1.788000000    -0.960000000    -6.668000000
O    -3.491000000     1.991000000    -0.943000000
H    -2.957000000     2.785000000    -0.910000000
H    -4.110000000     2.089000000    -0.220000000
O    -0.245000000     0.657000000    -4.732000000
H     0.395000000     0.047000000    -4.366000000
H    -0.978000000     0.632000000    -4.118000000
O    -5.708000000     2.058000000    -2.533000000
H    -4.886000000     1.873000000    -2.079000000
H    -6.318000000     1.397000000    -2.206000000
O    -0.798000000    -1.932000000     5.395000000
H    -0.912000000    -2.102000000     6.331000000
H    -1.352000000    -1.172000000     5.221000000
O    -4.374000000    -1.423000000    -0.339000000
H    -3.987000000    -0.611000000    -0.667000000
H    -4.429000000    -1.990000000    -1.108000000
O     2.378000000     4.927000000     5.758000000
H     2.788000000     5.625000000     5.249000000
H     1.968000000     4.361000000     5.104000000
O    -4.513000000     1.311000000     3.624000000
H    -3.971000000     2.090000000     3.500000000
H    -5.259000000     1.618000000     4.138000000
O     0.032000000    -6.801000000     1.096000000
H    -0.849000000    -6.751000000     0.723000000
H     0.603000000    -6.942000000     0.341000000
O     0.454000000     4.707000000    -4.513000000
H     0.733000000     5.456000000    -5.041000000
H    -0.474000000     4.601000000    -4.720000000
O    -2.693000000     4.832000000    -1.909000000
H    -3.031000000     5.269000000    -1.128000000
H    -2.050000000     4.206000000    -1.575000000
O     5.298000000    -0.365000000     2.121000000
H     4.670000000    -0.483000000     2.834000000
H     4.814000000    -0.611000000     1.332000000
O    -2.466000000    -5.738000000    -1.275000000
H    -3.304000000    -6.200000000    -1.297000000
H    -1.809000000    -6.429000000    -1.366000000
