158
-3026.45832
C    -0.383000000     1.144000000    -0.877000000
H    -0.813000000     1.872000000    -1.559000000
C    -0.417000000    -0.181000000    -1.223000000
H    -0.689000000    -0.556000000    -2.206000000
C     0.072000000    -1.168000000    -0.341000000
H    -0.064000000    -2.127000000    -0.581000000
C     0.485000000    -0.846000000     0.939000000
H     0.674000000    -1.642000000     1.655000000
C     0.328000000     0.493000000     1.387000000
H     0.623000000     0.776000000     2.395000000
C    -0.016000000     1.511000000     0.470000000
C     0.013000000     2.943000000     0.916000000
O     0.025000000     3.823000000     0.078000000
O     0.016000000     3.241000000     2.082000000
O     2.203000000     5.586000000     4.130000000
H     1.639000000     4.820000000     4.238000000
H     2.134000000     6.053000000     4.963000000
O    -0.340000000    -3.239000000    -2.866000000
H     0.327000000    -2.626000000    -2.555000000
H     0.103000000    -3.755000000    -3.539000000
O    -1.676000000     1.582000000     6.600000000
H    -1.016000000     1.508000000     5.910000000
H    -2.197000000     2.346000000     6.351000000
O    -3.735000000    -0.324000000    -6.290000000
H    -3.668000000    -0.562000000    -5.365000000
H    -2.869000000     0.020000000    -6.512000000
O    -2.485000000     0.113000000     3.365000000
H    -2.883000000     0.978000000     3.271000000
H    -2.510000000    -0.260000000     2.484000000
O     3.406000000    -4.092000000    -1.776000000
H     3.298000000    -3.270000000    -2.254000000
H     3.464000000    -4.761000000    -2.458000000
O     1.283000000     2.899000000     7.314000000
H     0.817000000     3.110000000     6.505000000
H     2.178000000     2.707000000     7.032000000
O     1.586000000    -6.839000000    -0.425000000
H     2.076000000    -6.613000000     0.365000000
H     1.584000000    -7.796000000    -0.442000000
O    -0.102000000     5.294000000    -2.155000000
H    -0.885000000     5.839000000    -2.071000000
H    -0.072000000     4.792000000    -1.340000000
O     1.615000000     8.389000000    -0.248000000
H     1.575000000     9.059000000     0.434000000
H     1.783000000     7.574000000     0.226000000
O     2.907000000     0.143000000    -1.045000000
H     2.043000000    -0.013000000    -0.665000000
H     2.902000000     1.071000000    -1.279000000
O    -2.577000000     6.336000000    -2.442000000
H    -3.196000000     6.784000000    -1.866000000
H    -3.084000000     5.623000000    -2.830000000
O     1.519000000    -0.974000000    -5.305000000
H     0.568000000    -1.070000000    -5.350000000
H     1.799000000    -0.929000000    -6.220000000
O     4.461000000    -0.803000000     0.814000000
H     3.799000000    -0.417000000     0.240000000
H     4.369000000    -1.747000000     0.686000000
O     3.518000000     5.976000000    -2.271000000
H     4.335000000     5.662000000    -1.884000000
H     3.176000000     6.602000000    -1.633000000
O    -2.682000000    -5.164000000    -3.328000000
H    -2.141000000    -4.468000000    -3.702000000
H    -2.507000000    -5.926000000    -3.880000000
O    -2.089000000     4.864000000     5.285000000
H    -2.452000000     5.548000000     4.722000000
H    -2.851000000     4.492000000     5.730000000
O     1.365000000     2.470000000    -5.420000000
H     0.797000000     1.776000000    -5.085000000
H     2.235000000     2.249000000    -5.087000000
O    -2.260000000    -3.816000000     1.397000000
H    -1.360000000    -3.919000000     1.089000000
H    -2.526000000    -2.955000000     1.073000000
O    -4.103000000    -6.760000000    -0.195000000
H    -4.728000000    -6.856000000    -0.913000000
H    -3.305000000    -6.437000000    -0.613000000
O     2.003000000    -6.229000000    -3.212000000
H     1.810000000    -6.512000000    -2.318000000
H     1.145000000    -6.045000000    -3.595000000
O     3.288000000    -4.375000000     2.540000000
H     3.720000000    -3.781000000     3.154000000
H     3.861000000    -4.385000000     1.773000000
O     2.614000000     2.690000000    -1.936000000
H     3.298000000     3.235000000    -1.548000000
H     1.795000000     3.083000000    -1.635000000
O    -4.195000000     4.206000000     2.538000000
H    -3.697000000     4.166000000     1.721000000
H    -3.950000000     5.046000000     2.926000000
O     2.469000000     0.659000000     3.886000000
H     2.822000000     0.804000000     4.765000000
H     1.521000000     0.615000000     4.013000000
O    -2.006000000    -2.376000000    -4.926000000
H    -1.824000000    -1.978000000    -5.778000000
H    -1.514000000    -1.842000000    -4.303000000
O    -2.291000000     7.939000000     1.222000000
H    -1.881000000     8.501000000     0.564000000
H    -1.573000000     7.401000000     1.557000000
O    -2.978000000    -1.357000000     0.349000000
H    -3.581000000    -0.626000000     0.219000000
H    -2.155000000    -1.060000000    -0.038000000
O    -2.443000000     4.921000000     0.456000000
H    -2.330000000     5.816000000     0.778000000
H    -1.551000000     4.587000000     0.359000000
O    -5.122000000     0.405000000    -2.603000000
H    -4.930000000     0.309000000    -1.670000000
H    -6.035000000     0.128000000    -2.689000000
O     0.700000000    -4.317000000     1.434000000
H     1.582000000    -4.280000000     1.804000000
H     0.786000000    -4.883000000     0.667000000
O    -1.550000000    -6.334000000    -0.982000000
H    -1.604000000    -5.529000000    -1.496000000
H    -1.224000000    -6.990000000    -1.598000000
O    -5.977000000    -3.331000000    -1.275000000
H    -6.759000000    -2.865000000    -0.981000000
H    -5.434000000    -3.407000000    -0.490000000
O     0.402000000     3.654000000     4.599000000
H    -0.374000000     4.201000000     4.724000000
H     0.210000000     3.143000000     3.813000000
O    -0.558000000     4.470000000    -4.773000000
H    -0.384000000     4.832000000    -3.904000000
H     0.142000000     3.833000000    -4.912000000
O    -2.314000000    -2.903000000     5.614000000
H    -1.417000000    -2.591000000     5.490000000
H    -2.832000000    -2.105000000     5.720000000
O    -0.184000000     6.087000000     2.235000000
H     0.683000000     6.231000000     2.614000000
H    -0.249000000     5.136000000     2.140000000
O    -0.516000000    -5.523000000    -4.916000000
H    -0.857000000    -5.021000000    -5.655000000
H    -0.365000000    -6.399000000    -5.270000000
O     2.567000000    -1.846000000    -3.052000000
H     2.399000000    -1.438000000    -3.902000000
H     2.700000000    -1.110000000    -2.455000000
O    -3.386000000     2.194000000    -3.571000000
H    -3.282000000     2.928000000    -2.966000000
H    -4.129000000     1.701000000    -3.224000000
O     2.227000000     5.597000000     0.709000000
H     2.779000000     4.937000000     1.129000000
H     1.362000000     5.189000000     0.660000000
O    -1.211000000     0.618000000    -4.704000000
H    -1.937000000     1.099000000    -4.305000000
H    -1.137000000     0.984000000    -5.585000000
O    -0.151000000     0.674000000     4.774000000
H    -0.044000000    -0.180000000     5.192000000
H    -1.015000000     0.634000000     4.363000000
O     4.744000000    -3.435000000     0.285000000
H     4.213000000    -3.665000000    -0.477000000
H     5.607000000    -3.231000000    -0.077000000
O     3.029000000     2.795000000     2.017000000
H     2.925000000     2.075000000     2.640000000
H     2.172000000     3.219000000     1.996000000
O    -4.413000000     4.007000000    -1.629000000
H    -5.328000000     3.813000000    -1.427000000
H    -4.044000000     4.314000000    -0.801000000
O    -5.186000000    -5.664000000    -2.386000000
H    -4.255000000    -5.487000000    -2.522000000
H    -5.531000000    -4.855000000    -2.009000000
O    -1.377000000    -6.708000000     1.951000000
H    -1.328000000    -6.789000000     0.999000000
H    -1.764000000    -5.845000000     2.098000000
