158
-3026.06406
C    -0.224000000     1.414000000    -0.082000000
H    -0.480000000     2.455000000    -0.264000000
C    -0.840000000     0.471000000    -0.873000000
H    -1.417000000     0.736000000    -1.755000000
C    -0.606000000    -0.850000000    -0.683000000
H    -1.218000000    -1.609000000    -1.281000000
C     0.341000000    -1.226000000     0.288000000
H     0.590000000    -2.275000000     0.426000000
C     0.965000000    -0.303000000     1.131000000
H     1.733000000    -0.573000000     1.852000000
C     0.673000000     1.051000000     0.962000000
C     1.367000000     2.131000000     1.687000000
O     1.648000000     3.169000000     1.128000000
O     1.841000000     1.903000000     2.777000000
O    -2.756000000     2.667000000    -3.414000000
H    -2.790000000     3.284000000    -4.144000000
H    -2.002000000     2.950000000    -2.896000000
O    -0.433000000    -4.895000000    -0.954000000
H    -0.946000000    -4.806000000    -0.151000000
H     0.433000000    -5.172000000    -0.655000000
O     1.348000000     1.468000000    -3.253000000
H     0.947000000     1.546000000    -4.118000000
H     1.257000000     0.542000000    -3.029000000
O    -0.041000000     1.508000000    -5.796000000
H    -0.447000000     1.348000000    -6.648000000
H    -0.089000000     2.457000000    -5.683000000
O     0.323000000     5.216000000    -0.105000000
H     0.980000000     5.790000000    -0.498000000
H     0.822000000     4.468000000     0.222000000
O     1.520000000    -3.259000000     3.466000000
H     1.867000000    -3.640000000     4.273000000
H     0.586000000    -3.140000000     3.640000000
O     2.552000000    -1.160000000    -4.328000000
H     2.779000000    -0.650000000    -5.105000000
H     1.595000000    -1.159000000    -4.312000000
O    -1.131000000    -3.767000000     3.520000000
H    -1.402000000    -2.917000000     3.173000000
H    -1.899000000    -4.088000000     3.994000000
O    -0.230000000     6.184000000     4.482000000
H     0.533000000     5.728000000     4.127000000
H    -0.919000000     6.039000000     3.833000000
O     3.369000000     5.035000000     0.919000000
H     4.271000000     4.743000000     1.051000000
H     2.841000000     4.248000000     1.048000000
O     5.797000000     3.766000000     1.345000000
H     6.274000000     4.262000000     0.681000000
H     5.919000000     2.850000000     1.094000000
O    -0.019000000     1.838000000     7.441000000
H    -0.363000000     2.647000000     7.062000000
H     0.092000000     1.252000000     6.693000000
O    -2.216000000    -1.314000000    -6.849000000
H    -2.623000000    -0.758000000    -6.184000000
H    -2.214000000    -2.189000000    -6.461000000
O    -2.354000000    -3.849000000    -5.643000000
H    -2.008000000    -4.373000000    -4.921000000
H    -2.576000000    -4.489000000    -6.319000000
O    -1.299000000     6.179000000     1.915000000
H    -0.563000000     5.944000000     1.349000000
H    -1.697000000     6.937000000     1.487000000
O    -1.716000000     6.759000000    -1.664000000
H    -2.662000000     6.625000000    -1.714000000
H    -1.385000000     5.974000000    -1.228000000
O     2.437000000     5.029000000    -2.839000000
H     2.506000000     4.083000000    -2.715000000
H     2.253000000     5.373000000    -1.965000000
O    -3.020000000     0.235000000     1.041000000
H    -2.253000000     0.570000000     0.576000000
H    -2.663000000    -0.386000000     1.676000000
O     5.692000000     1.235000000     0.720000000
H     5.558000000     1.015000000    -0.202000000
H     5.294000000     0.509000000     1.200000000
O    -5.718000000    -1.223000000     0.416000000
H    -5.314000000    -0.358000000     0.495000000
H    -6.394000000    -1.111000000    -0.252000000
O    -1.116000000    -5.565000000    -3.375000000
H    -1.545000000    -6.369000000    -3.081000000
H    -0.636000000    -5.255000000    -2.608000000
O     4.733000000    -4.711000000    -0.502000000
H     4.558000000    -4.379000000     0.378000000
H     4.049000000    -4.321000000    -1.046000000
O     0.154000000     0.750000000     4.689000000
H     0.375000000     1.279000000     3.923000000
H     0.980000000     0.336000000     4.941000000
O    -4.156000000     2.862000000     1.095000000
H    -5.072000000     2.644000000     1.268000000
H    -3.688000000     2.034000000     1.201000000
O    -5.709000000     0.326000000    -3.568000000
H    -5.345000000     0.859000000    -2.861000000
H    -6.167000000    -0.385000000    -3.120000000
O     4.342000000     2.204000000     5.919000000
H     4.410000000     3.000000000     6.446000000
H     4.202000000     1.505000000     6.557000000
O     1.771000000    -5.729000000    -3.782000000
H     2.072000000    -5.578000000    -4.678000000
H     0.864000000    -6.018000000    -3.880000000
O    -2.899000000    -0.166000000    -4.384000000
H    -2.925000000     0.672000000    -3.922000000
H    -3.716000000    -0.600000000    -4.140000000
O    -0.237000000     4.270000000     6.366000000
H    -0.455000000     4.975000000     5.756000000
H     0.554000000     3.873000000     6.000000000
O     2.021000000    -0.706000000     6.242000000
H     2.104000000    -1.652000000     6.117000000
H     2.790000000    -0.464000000     6.757000000
O     4.014000000     0.438000000     3.682000000
H     3.437000000     1.039000000     3.212000000
H     4.373000000     0.962000000     4.399000000
O    -4.566000000     1.527000000    -1.542000000
H    -3.924000000     1.771000000    -2.210000000
H    -4.334000000     2.060000000    -0.781000000
O     5.915000000     3.399000000    -2.125000000
H     6.062000000     2.580000000    -2.599000000
H     5.133000000     3.234000000    -1.598000000
O     2.089000000     3.775000000     4.852000000
H     2.816000000     3.531000000     5.425000000
H     2.260000000     3.308000000     4.035000000
O     3.541000000    -3.858000000     1.883000000
H     2.795000000    -3.647000000     2.444000000
H     3.724000000    -4.780000000     2.064000000
O    -0.026000000    -1.331000000    -4.756000000
H    -0.069000000    -0.599000000    -5.371000000
H    -0.901000000    -1.371000000    -4.370000000
O     4.542000000    -1.189000000     1.310000000
H     4.544000000    -1.049000000     2.256000000
H     4.222000000    -2.085000000     1.201000000
O    -3.141000000    -6.145000000    -0.592000000
H    -2.929000000    -5.779000000     0.267000000
H    -2.413000000    -5.879000000    -1.152000000
O     3.059000000     2.601000000    -1.124000000
H     2.703000000     2.766000000    -0.250000000
H     2.429000000     2.006000000    -1.530000000
O     2.577000000     7.010000000    -0.407000000
H     3.021000000     6.387000000     0.168000000
H     2.937000000     7.862000000    -0.160000000
O     0.132000000    -3.459000000    -6.950000000
H     0.119000000    -2.502000000    -6.943000000
H    -0.669000000    -3.713000000    -6.491000000
O     3.278000000    -3.174000000    -2.573000000
H     2.905000000    -2.471000000    -3.104000000
H     2.701000000    -3.922000000    -2.727000000
O     4.856000000    -0.966000000    -1.786000000
H     4.417000000    -0.778000000    -0.956000000
H     4.411000000    -1.746000000    -2.120000000
O     4.468000000    -2.220000000     4.323000000
H     3.722000000    -2.617000000     4.772000000
H     4.315000000    -1.278000000     4.392000000
O    -3.907000000     5.343000000     2.392000000
H    -3.048000000     5.766000000     2.403000000
H    -3.794000000     4.587000000     1.817000000
O    -4.626000000    -2.621000000    -4.146000000
H    -4.214000000    -3.076000000    -4.880000000
H    -4.386000000    -3.141000000    -3.378000000
O    -1.636000000    -1.005000000     2.966000000
H    -2.087000000    -0.361000000     3.511000000
H    -0.744000000    -0.667000000     2.884000000
O     1.104000000    -6.523000000     0.557000000
H     0.494000000    -6.406000000     1.285000000
H     1.852000000    -6.980000000     0.942000000
