158
-3042.70290
C    -0.631000000     1.193000000    -0.597000000
H    -1.156000000     1.970000000    -1.146000000
C    -0.777000000    -0.083000000    -1.078000000
H    -1.486000000    -0.269000000    -1.880000000
C    -0.149000000    -1.123000000    -0.435000000
H    -0.294000000    -2.154000000    -0.801000000
C     0.538000000    -0.936000000     0.792000000
H     1.033000000    -1.744000000     1.324000000
C     0.757000000     0.352000000     1.281000000
H     1.400000000     0.548000000     2.135000000
C     0.158000000     1.452000000     0.552000000
C     0.320000000     2.824000000     1.031000000
O    -0.036000000     3.828000000     0.428000000
O     0.756000000     2.920000000     2.133000000
O     3.683000000     5.439000000     2.477000000
H     3.554000000     4.587000000     2.894000000
H     4.247000000     5.920000000     3.082000000
O    -0.033000000     7.323000000    -2.496000000
H     0.075000000     6.398000000    -2.719000000
H     0.806000000     7.575000000    -2.109000000
O    -3.631000000    -4.516000000     0.517000000
H    -2.953000000    -4.910000000    -0.033000000
H    -3.427000000    -3.581000000     0.514000000
O     0.946000000    -3.996000000    -2.537000000
H     1.413000000    -3.213000000    -2.828000000
H     1.549000000    -4.423000000    -1.930000000
O     0.103000000     1.249000000     6.159000000
H     0.526000000     1.996000000     5.734000000
H    -0.831000000     1.457000000     6.135000000
O    -3.153000000    -1.270000000    -5.978000000
H    -3.446000000    -1.731000000    -5.192000000
H    -2.520000000    -0.628000000    -5.657000000
O    -2.068000000     0.003000000     3.231000000
H    -2.633000000     0.661000000     2.824000000
H    -1.209000000     0.148000000     2.836000000
O     3.938000000    -5.586000000    -3.865000000
H     3.401000000    -6.378000000    -3.843000000
H     3.323000000    -4.885000000    -4.079000000
O     3.110000000     3.805000000     6.151000000
H     2.229000000     3.842000000     5.778000000
H     3.289000000     2.871000000     6.254000000
O    -1.899000000     4.737000000     2.747000000
H    -1.236000000     4.231000000     2.278000000
H    -2.733000000     4.416000000     2.404000000
O     0.541000000     4.245000000    -2.441000000
H    -0.329000000     4.581000000    -2.653000000
H     0.550000000     4.187000000    -1.486000000
O     2.391000000     7.548000000    -1.090000000
H     2.861000000     8.373000000    -0.965000000
H     1.958000000     7.390000000    -0.251000000
O     2.254000000    -1.195000000    -2.408000000
H     2.023000000    -0.334000000    -2.756000000
H     1.801000000    -1.244000000    -1.567000000
O     6.443000000     2.123000000     2.682000000
H     5.605000000     2.477000000     2.383000000
H     6.207000000     1.477000000     3.347000000
O    -1.969000000     5.051000000    -2.877000000
H    -2.415000000     5.898000000    -2.852000000
H    -2.051000000     4.764000000    -3.786000000
O    -2.640000000    -5.197000000    -2.273000000
H    -2.725000000    -5.037000000    -3.213000000
H    -1.795000000    -4.811000000    -2.040000000
O    -0.209000000     5.882000000     4.535000000
H    -0.839000000     5.566000000     3.886000000
H    -0.729000000     6.423000000     5.130000000
O    -0.891000000    -3.581000000     2.841000000
H    -1.662000000    -3.557000000     3.408000000
H    -0.440000000    -2.754000000     3.013000000
O    -2.791000000    -7.698000000    -1.028000000
H    -2.512000000    -6.935000000    -1.533000000
H    -3.289000000    -7.333000000    -0.297000000
O     4.181000000     2.175000000    -1.066000000
H     4.617000000     2.967000000    -0.753000000
H     3.436000000     2.063000000    -0.475000000
O    -3.193000000     1.970000000     1.629000000
H    -3.410000000     2.180000000     0.721000000
H    -3.780000000     2.520000000     2.149000000
O     2.771000000     0.304000000     4.215000000
H     3.013000000     0.342000000     5.140000000
H     1.856000000     0.023000000     4.219000000
O    -0.171000000    -4.253000000    -5.374000000
H    -0.108000000    -3.326000000    -5.604000000
H     0.276000000    -4.322000000    -4.530000000
O    -0.155000000     8.654000000     1.381000000
H     0.546000000     9.288000000     1.535000000
H     0.301000000     7.831000000     1.209000000
O    -3.261000000    -1.837000000     0.558000000
H    -2.567000000    -1.249000000     0.262000000
H    -3.735000000    -1.335000000     1.221000000
O    -2.594000000     3.994000000    -0.245000000
H    -2.398000000     4.518000000    -1.022000000
H    -1.745000000     3.865000000     0.177000000
O    -3.847000000    -2.450000000    -3.466000000
H    -4.216000000    -2.099000000    -2.655000000
H    -4.464000000    -3.132000000    -3.733000000
O     2.645000000    -4.066000000     0.279000000
H     2.716000000    -3.966000000     1.229000000
H     2.796000000    -4.998000000     0.124000000
O    -0.786000000    -4.924000000     0.554000000
H    -0.749000000    -4.430000000     1.373000000
H    -0.027000000    -4.619000000     0.056000000
O     1.008000000     3.498000000     4.640000000
H     0.480000000     4.293000000     4.707000000
H     0.972000000     3.263000000     3.713000000
O     0.307000000     1.835000000    -3.720000000
H     0.244000000     2.607000000    -3.158000000
H     1.236000000     1.607000000    -3.710000000
O     1.182000000     6.111000000     1.405000000
H     1.929000000     5.796000000     1.914000000
H     0.723000000     5.315000000     1.137000000
O     2.909000000    -3.162000000    -4.675000000
H     2.888000000    -3.108000000    -5.631000000
H     2.922000000    -2.250000000    -4.385000000
O    -3.203000000     1.781000000    -3.914000000
H    -3.542000000     1.560000000    -3.046000000
H    -2.382000000     1.294000000    -3.982000000
O    -5.926000000    -1.113000000    -1.873000000
H    -5.377000000    -1.025000000    -1.094000000
H    -6.788000000    -0.804000000    -1.594000000
O    -1.217000000     0.775000000    -5.794000000
H    -0.702000000     1.026000000    -5.027000000
H    -0.793000000     1.225000000    -6.525000000
O    -2.748000000     7.722000000     0.907000000
H    -2.880000000     7.368000000     1.786000000
H    -1.826000000     7.980000000     0.888000000
O     0.349000000    -1.475000000     4.070000000
H     0.430000000    -1.442000000     5.024000000
H    -0.492000000    -1.056000000     3.887000000
O     5.433000000    -3.542000000     0.060000000
H     4.508000000    -3.670000000     0.271000000
H     5.623000000    -4.209000000    -0.600000000
O     3.513000000     2.567000000     2.602000000
H     3.367000000     1.776000000     3.121000000
H     2.658000000     2.995000000     2.571000000
O     4.920000000    -0.207000000    -2.344000000
H     4.068000000    -0.542000000    -2.623000000
H     4.720000000     0.615000000    -1.897000000
O    -5.618000000    -0.035000000     0.895000000
H    -6.134000000     0.628000000     1.352000000
H    -5.064000000     0.465000000     0.295000000
O    -2.478000000     4.113000000    -5.594000000
H    -2.585000000     3.185000000    -5.386000000
H    -2.208000000     4.123000000    -6.513000000
O    -4.119000000     1.870000000    -1.210000000
H    -4.947000000     2.292000000    -1.439000000
H    -3.480000000     2.582000000    -1.205000000
O     4.379000000    -1.399000000     2.455000000
H     3.836000000    -0.749000000     2.901000000
H     4.655000000    -0.966000000     1.648000000
O     2.506000000    -3.663000000     3.632000000
H     1.875000000    -2.970000000     3.436000000
H     3.357000000    -3.226000000     3.605000000
O    -2.771000000    -5.281000000    -5.475000000
H    -2.778000000    -5.971000000    -6.138000000
H    -1.852000000    -5.022000000    -5.408000000
O    -0.805000000    -7.292000000     1.514000000
H    -0.874000000    -6.470000000     1.030000000
H    -1.271000000    -7.126000000     2.334000000
