158
-2998.36780
C    -0.206000000     1.429000000    -0.050000000
H    -0.335000000     2.502000000    -0.165000000
C    -0.656000000     0.491000000    -0.992000000
H    -1.259000000     0.683000000    -1.876000000
C    -0.369000000    -0.850000000    -0.813000000
H    -0.595000000    -1.621000000    -1.558000000
C     0.262000000    -1.243000000     0.310000000
H     0.437000000    -2.288000000     0.550000000
C     0.725000000    -0.328000000     1.233000000
H     1.360000000    -0.749000000     2.008000000
C     0.525000000     1.041000000     1.081000000
C     1.092000000     2.152000000     2.010000000
O     0.539000000     3.237000000     1.982000000
O     2.014000000     1.852000000     2.747000000
O     3.924000000     1.839000000     7.504000000
H     4.664000000     2.210000000     7.023000000
H     3.259000000     1.679000000     6.833000000
O     1.667000000    -4.589000000    -0.431000000
H     2.317000000    -4.342000000     0.227000000
H     2.181000000    -4.782000000    -1.215000000
O    -1.375000000     2.942000000    -3.291000000
H    -2.260000000     3.105000000    -3.615000000
H    -1.105000000     2.134000000    -3.728000000
O    -2.581000000    -3.806000000     1.485000000
H    -2.971000000    -3.654000000     2.346000000
H    -2.610000000    -2.951000000     1.055000000
O    -2.213000000     6.882000000     0.759000000
H    -1.977000000     6.222000000     1.411000000
H    -1.733000000     7.666000000     1.027000000
O     0.784000000     1.498000000     7.580000000
H     1.236000000     2.138000000     8.130000000
H     1.299000000     1.467000000     6.774000000
O     3.282000000    -0.787000000    -5.668000000
H     2.494000000    -0.933000000    -5.145000000
H     3.141000000    -1.300000000    -6.463000000
O    -2.570000000    -1.056000000     1.285000000
H    -2.488000000    -0.461000000     2.030000000
H    -1.772000000    -0.912000000     0.775000000
O    -4.071000000     5.562000000     3.545000000
H    -3.457000000     5.535000000     2.811000000
H    -4.931000000     5.449000000     3.141000000
O    -1.831000000     4.589000000     1.933000000
H    -0.961000000     4.230000000     2.109000000
H    -2.434000000     3.958000000     2.327000000
O     1.053000000     5.337000000     0.494000000
H     1.441000000     5.813000000     1.228000000
H     0.780000000     4.500000000     0.869000000
O    -2.011000000     0.467000000     3.628000000
H    -1.740000000     0.865000000     4.455000000
H    -2.435000000     1.178000000     3.148000000
O     4.007000000     4.756000000     0.554000000
H     4.473000000     5.073000000     1.328000000
H     3.175000000     5.229000000     0.566000000
O     1.319000000     6.492000000    -1.975000000
H     1.284000000     6.047000000    -1.128000000
H     1.421000000     5.786000000    -2.613000000
O    -5.008000000     1.184000000    -2.194000000
H    -4.631000000     0.497000000    -1.644000000
H    -4.679000000     0.994000000    -3.073000000
O    -2.152000000     1.374000000    -5.603000000
H    -2.732000000     2.096000000    -5.847000000
H    -1.810000000     1.049000000    -6.436000000
O     0.486000000    -6.115000000    -2.772000000
H    -0.452000000    -6.301000000    -2.813000000
H     0.690000000    -6.118000000    -1.837000000
O    -0.078000000    -4.319000000     3.369000000
H    -0.931000000    -4.556000000     3.005000000
H    -0.253000000    -3.545000000     3.905000000
O    -0.623000000    -1.834000000     4.740000000
H    -0.924000000    -1.582000000     5.612000000
H    -1.067000000    -1.226000000     4.148000000
O    -4.438000000     2.539000000     0.188000000
H    -5.157000000     3.121000000    -0.058000000
H    -4.209000000     2.084000000    -0.622000000
O     1.062000000    -3.549000000    -7.486000000
H     1.134000000    -3.887000000    -6.594000000
H     0.141000000    -3.305000000    -7.577000000
O    -1.888000000    -3.043000000    -4.151000000
H    -1.415000000    -3.581000000    -3.516000000
H    -2.606000000    -3.601000000    -4.451000000
O    -2.449000000    -6.984000000    -3.393000000
H    -2.228000000    -6.909000000    -2.465000000
H    -3.283000000    -6.521000000    -3.479000000
O     0.394000000     8.034000000     4.227000000
H     0.667000000     7.655000000     3.391000000
H    -0.541000000     7.837000000     4.285000000
O    -5.623000000    -2.670000000    -2.292000000
H    -5.057000000    -2.166000000    -1.708000000
H    -5.112000000    -2.768000000    -3.095000000
O     4.431000000     2.022000000     1.399000000
H     3.764000000     1.900000000     2.074000000
H     4.613000000     2.961000000     1.408000000
O     2.911000000     4.293000000     3.684000000
H     2.375000000     3.731000000     3.124000000
H     2.874000000     5.153000000     3.266000000
O    -2.144000000    -5.249000000    -0.909000000
H    -2.835000000    -5.705000000    -0.429000000
H    -1.924000000    -4.499000000    -0.357000000
O     0.548000000    -1.258000000    -4.448000000
H    -0.194000000    -1.863000000    -4.450000000
H     0.203000000    -0.453000000    -4.834000000
O     4.486000000    -0.552000000     0.719000000
H     4.588000000     0.367000000     0.965000000
H     3.951000000    -0.531000000    -0.074000000
O    -4.628000000    -1.095000000    -0.520000000
H    -4.006000000    -1.243000000     0.193000000
H    -5.456000000    -0.906000000    -0.079000000
O    -3.455000000    -0.297000000    -3.878000000
H    -2.949000000     0.320000000    -4.407000000
H    -2.935000000    -1.101000000    -3.885000000
O     2.936000000     0.059000000    -1.240000000
H     3.110000000     0.950000000    -0.938000000
H     2.025000000    -0.103000000    -0.995000000
O     2.512000000     6.741000000     2.528000000
H     2.889000000     6.924000000     3.389000000
H     2.496000000     7.590000000     2.087000000
O     1.657000000    -5.171000000    -5.067000000
H     2.569000000    -5.265000000    -4.791000000
H     1.149000000    -5.320000000    -4.270000000
O     2.271000000    -1.820000000     4.219000000
H     1.324000000    -1.887000000     4.096000000
H     2.407000000    -2.016000000     5.146000000
O     2.464000000     1.097000000     5.246000000
H     2.647000000     0.186000000     5.019000000
H     2.297000000     1.525000000     4.406000000
O     5.363000000     3.297000000     5.625000000
H     4.831000000     4.030000000     5.316000000
H     5.574000000     2.804000000     4.832000000
O     2.087000000     2.256000000    -5.207000000
H     1.648000000     1.432000000    -4.997000000
H     2.340000000     2.167000000    -6.125000000
O     3.384000000    -6.387000000     1.513000000
H     2.613000000    -5.954000000     1.146000000
H     3.282000000    -6.296000000     2.460000000
O    -4.390000000     5.893000000    -0.835000000
H    -3.555000000     6.360000000    -0.858000000
H    -4.198000000     5.080000000    -0.368000000
O     1.028000000     4.180000000    -3.596000000
H     1.578000000     3.505000000    -3.994000000
H     0.407000000     3.695000000    -3.054000000
O    -0.540000000    -7.533000000     0.747000000
H    -0.382000000    -6.695000000     0.313000000
H    -1.213000000    -7.956000000     0.213000000
O    -4.459000000    -4.033000000    -4.612000000
H    -5.067000000    -4.772000000    -4.636000000
H    -4.736000000    -3.472000000    -5.337000000
O    -3.635000000     2.642000000     2.796000000
H    -4.321000000     2.265000000     3.347000000
H    -3.997000000     2.616000000     1.910000000
O     4.739000000    -1.359000000     3.681000000
H     3.806000000    -1.575000000     3.690000000
H     4.997000000    -1.450000000     2.764000000
O     0.132000000     3.888000000     4.478000000
H     0.847000000     3.504000000     4.986000000
H     0.230000000     3.512000000     3.603000000
O     2.588000000    -5.444000000     3.815000000
H     2.207000000    -6.316000000     3.713000000
H     1.849000000    -4.845000000     3.706000000
