158
-3063.32945
C    -0.749000000     1.229000000    -0.329000000
H    -1.333000000     2.081000000    -0.668000000
C    -0.839000000    -0.013000000    -1.015000000
H    -1.608000000    -0.136000000    -1.773000000
C    -0.126000000    -1.083000000    -0.590000000
H    -0.237000000    -2.065000000    -1.039000000
C     0.811000000    -0.890000000     0.450000000
H     1.358000000    -1.808000000     0.648000000
C     1.021000000     0.333000000     1.118000000
H     1.772000000     0.453000000     1.895000000
C     0.199000000     1.411000000     0.739000000
C     0.214000000     2.739000000     1.489000000
O    -0.333000000     3.699000000     0.965000000
O     0.962000000     2.863000000     2.445000000
O     4.580000000     5.156000000     1.828000000
H     4.491000000     4.207000000     1.747000000
H     5.212000000     5.278000000     2.536000000
O    -4.735000000    -4.307000000    -3.893000000
H    -4.460000000    -5.142000000    -4.270000000
H    -5.608000000    -4.156000000    -4.254000000
O    -3.990000000    -3.198000000     0.669000000
H    -3.453000000    -3.608000000     1.347000000
H    -3.838000000    -2.259000000     0.779000000
O    -0.861000000    -5.822000000    -3.941000000
H    -0.472000000    -6.627000000    -3.598000000
H    -0.884000000    -5.228000000    -3.191000000
O    -0.083000000     0.454000000     4.592000000
H    -0.403000000     1.220000000     5.069000000
H     0.869000000     0.492000000     4.688000000
O    -1.105000000    -1.383000000    -4.396000000
H    -0.829000000    -2.222000000    -4.766000000
H    -1.657000000    -1.620000000    -3.651000000
O    -3.196000000    -0.575000000     1.186000000
H    -3.032000000    -0.627000000     2.128000000
H    -2.384000000    -0.223000000     0.821000000
O     2.966000000     3.323000000     4.888000000
H     2.132000000     3.655000000     4.556000000
H     2.738000000     2.506000000     5.331000000
O     2.030000000    -6.905000000    -1.471000000
H     1.770000000    -7.825000000    -1.514000000
H     1.265000000    -6.456000000    -1.111000000
O    -2.936000000     4.384000000     1.384000000
H    -2.039000000     4.073000000     1.264000000
H    -3.293000000     4.436000000     0.497000000
O    -0.704000000     5.078000000    -1.262000000
H    -0.522000000     6.017000000    -1.292000000
H    -0.556000000     4.835000000    -0.348000000
O    -2.858000000     0.207000000     4.020000000
H    -2.019000000     0.632000000     4.200000000
H    -3.321000000     0.822000000     3.450000000
O     1.931000000     0.955000000    -2.463000000
H     1.869000000     1.813000000    -2.044000000
H     1.128000000     0.503000000    -2.204000000
O     5.120000000     0.374000000     2.853000000
H     4.781000000     1.266000000     2.771000000
H     5.265000000     0.258000000     3.792000000
O    -3.204000000     4.301000000    -1.873000000
H    -2.422000000     4.544000000    -1.379000000
H    -2.936000000     4.359000000    -2.790000000
O     6.254000000    -0.828000000     0.705000000
H     5.781000000    -0.502000000     1.470000000
H     5.609000000    -0.808000000    -0.002000000
O    -2.882000000    -4.532000000    -1.786000000
H    -3.530000000    -4.430000000    -2.483000000
H    -3.235000000    -4.025000000    -1.055000000
O    -2.092000000     5.005000000     4.906000000
H    -2.976000000     4.940000000     4.545000000
H    -2.188000000     5.570000000     5.673000000
O    -2.471000000    -4.375000000     2.434000000
H    -2.685000000    -4.048000000     3.308000000
H    -1.534000000    -4.204000000     2.337000000
O    -4.349000000    -6.885000000    -1.599000000
H    -3.955000000    -6.015000000    -1.544000000
H    -3.762000000    -7.446000000    -1.092000000
O    -3.846000000     2.310000000     2.765000000
H    -3.553000000     3.163000000     2.445000000
H    -4.555000000     2.063000000     2.171000000
O     2.672000000    -1.411000000     5.040000000
H     3.562000000    -1.690000000     5.257000000
H     2.630000000    -0.500000000     5.329000000
O    -0.020000000    -4.623000000    -6.591000000
H     0.495000000    -3.822000000    -6.493000000
H    -0.232000000    -4.882000000    -5.694000000
O     0.043000000     7.504000000     2.004000000
H     0.524000000     8.206000000     2.444000000
H     0.636000000     6.753000000     2.034000000
O    -5.972000000     1.742000000     0.644000000
H    -6.305000000     2.631000000     0.517000000
H    -5.407000000     1.588000000    -0.113000000
O    -4.728000000    -1.393000000    -4.744000000
H    -4.393000000    -0.983000000    -3.947000000
H    -5.051000000    -2.247000000    -4.457000000
O    -0.649000000    -5.975000000    -0.883000000
H    -1.168000000    -6.399000000    -0.199000000
H    -1.266000000    -5.392000000    -1.324000000
O     0.544000000     4.466000000     4.416000000
H    -0.360000000     4.768000000     4.505000000
H     0.498000000     3.758000000     3.774000000
O     0.886000000     3.451000000    -2.820000000
H     0.310000000     3.769000000    -2.125000000
H     1.663000000     4.007000000    -2.759000000
O     1.896000000     5.556000000     2.051000000
H     2.755000000     5.361000000     1.676000000
H     1.434000000     4.718000000     2.043000000
O     3.208000000     6.892000000     4.563000000
H     2.581000000     7.527000000     4.911000000
H     2.710000000     6.397000000     3.912000000
O    -2.164000000     1.115000000    -5.585000000
H    -2.971000000     1.490000000    -5.232000000
H    -1.906000000     0.454000000    -4.943000000
O    -3.885000000    -0.631000000    -2.222000000
H    -4.061000000     0.309000000    -2.191000000
H    -4.144000000    -0.952000000    -1.358000000
O    -1.296000000     2.427000000     6.448000000
H    -1.260000000     3.239000000     5.942000000
H    -2.231000000     2.249000000     6.550000000
O     1.566000000    -0.155000000    -4.927000000
H     1.334000000     0.249000000    -4.091000000
H     2.408000000     0.239000000    -5.158000000
O    -0.164000000     7.677000000    -0.683000000
H    -0.169000000     7.660000000     0.274000000
H    -1.007000000     8.064000000    -0.920000000
O     1.456000000    -2.624000000    -6.255000000
H     2.345000000    -2.510000000    -6.592000000
H     1.383000000    -1.980000000    -5.550000000
O    -1.155000000    -2.396000000     4.207000000
H    -0.761000000    -2.649000000     5.042000000
H    -0.897000000    -1.482000000     4.088000000
O     3.944000000    -5.174000000    -0.343000000
H     3.357000000    -5.886000000    -0.597000000
H     3.575000000    -4.840000000     0.475000000
O     3.682000000     2.703000000     2.384000000
H     3.731000000     3.025000000     3.284000000
H     2.761000000     2.472000000     2.262000000
O     4.372000000    -0.349000000    -1.427000000
H     3.577000000    -0.410000000    -1.957000000
H     4.645000000     0.565000000    -1.509000000
O    -2.118000000     3.772000000    -4.478000000
H    -1.892000000     4.221000000    -5.293000000
H    -1.576000000     2.983000000    -4.481000000
O    -4.443000000     2.025000000    -1.632000000
H    -5.139000000     2.144000000    -2.278000000
H    -3.876000000     2.787000000    -1.748000000
O     2.897000000     1.069000000     6.234000000
H     2.512000000     1.379000000     7.053000000
H     3.840000000     1.175000000     6.357000000
O     2.977000000    -3.787000000     3.142000000
H     3.450000000    -3.125000000     2.638000000
H     2.987000000    -3.458000000     4.040000000
O     0.313000000    -3.841000000     2.535000000
H     0.032000000    -3.460000000     3.367000000
H     1.270000000    -3.832000000     2.579000000
O    -2.771000000     7.282000000     2.223000000
H    -1.822000000     7.338000000     2.331000000
H    -2.969000000     6.350000000     2.321000000
O    -1.459000000    -6.712000000     1.818000000
H    -1.250000000    -5.806000000     1.590000000
H    -1.293000000    -6.766000000     2.759000000
