158
-3055.68388
C    -0.514000000     0.674000000     1.212000000
H    -0.854000000     1.381000000     1.965000000
C    -0.276000000     1.254000000    -0.081000000
H    -0.584000000     2.282000000    -0.251000000
C     0.241000000     0.537000000    -1.123000000
H     0.326000000     0.991000000    -2.044000000
C     0.401000000    -0.849000000    -0.909000000
H     0.696000000    -1.416000000    -1.787000000
C     0.307000000    -1.416000000     0.355000000
H     0.651000000    -2.435000000     0.517000000
C    -0.154000000    -0.641000000     1.435000000
C    -0.564000000    -1.319000000     2.763000000
O    -1.190000000    -0.703000000     3.627000000
O    -0.238000000    -2.449000000     2.987000000
O     3.422000000    -1.686000000    -5.839000000
H     3.325000000    -2.516000000    -6.306000000
H     2.547000000    -1.497000000    -5.502000000
O    -2.455000000     3.487000000    -2.230000000
H    -3.116000000     3.909000000    -1.681000000
H    -2.483000000     2.565000000    -1.972000000
O    -4.807000000    -0.955000000    -1.837000000
H    -5.493000000    -1.070000000    -1.179000000
H    -3.990000000    -0.991000000    -1.340000000
O    -0.619000000    -5.098000000     0.197000000
H     0.302000000    -4.854000000     0.107000000
H    -0.795000000    -5.025000000     1.135000000
O     4.845000000    -0.873000000     0.322000000
H     4.795000000     0.034000000     0.020000000
H     5.770000000    -1.006000000     0.528000000
O    -3.045000000     0.813000000    -3.467000000
H    -3.596000000     1.050000000    -4.213000000
H    -3.661000000     0.680000000    -2.747000000
O    -3.273000000     3.889000000     3.216000000
H    -3.713000000     3.915000000     2.367000000
H    -3.418000000     2.998000000     3.534000000
O     2.214000000     1.845000000     4.805000000
H     1.912000000     1.006000000     4.457000000
H     2.068000000     2.466000000     4.092000000
O    -3.349000000    -1.635000000     7.411000000
H    -2.867000000    -0.825000000     7.245000000
H    -2.676000000    -2.314000000     7.436000000
O    -0.306000000    -5.037000000    -3.439000000
H    -1.182000000    -4.676000000    -3.578000000
H    -0.459000000    -5.867000000    -2.987000000
O     2.500000000     3.563000000     2.749000000
H     2.487000000     4.438000000     2.362000000
H     2.521000000     2.970000000     1.998000000
O     3.227000000    -0.652000000     2.831000000
H     3.564000000    -0.542000000     1.943000000
H     3.892000000    -0.252000000     3.392000000
O    -0.069000000     4.944000000    -1.756000000
H    -0.858000000     4.470000000    -2.021000000
H    -0.165000000     5.809000000    -2.153000000
O    -0.143000000     3.712000000    -6.690000000
H    -0.352000000     4.468000000    -6.142000000
H    -0.980000000     3.264000000    -6.810000000
O    -0.640000000    -0.355000000     6.293000000
H    -0.909000000    -0.606000000     5.410000000
H     0.159000000     0.156000000     6.165000000
O     2.777000000     0.981000000    -6.785000000
H     2.997000000     0.130000000    -6.405000000
H     1.848000000     1.100000000    -6.585000000
O    -2.641000000    -3.102000000     4.178000000
H    -1.896000000    -2.573000000     3.892000000
H    -3.351000000    -2.472000000     4.299000000
O    -1.127000000     5.650000000    -4.861000000
H    -1.830000000     5.013000000    -4.986000000
H    -1.503000000     6.311000000    -4.281000000
O     0.345000000    -3.286000000     5.517000000
H    -0.455000000    -3.083000000     6.001000000
H     0.261000000    -2.797000000     4.699000000
O    -4.656000000     2.681000000    -0.243000000
H    -4.797000000     1.806000000     0.118000000
H    -5.195000000     3.254000000     0.303000000
O    -1.525000000    -1.394000000    -4.229000000
H    -2.290000000    -1.934000000    -4.030000000
H    -1.806000000    -0.500000000    -4.032000000
O    -2.892000000    -4.594000000    -1.064000000
H    -3.199000000    -4.718000000    -0.166000000
H    -1.937000000    -4.586000000    -0.991000000
O     2.276000000    -5.400000000    -2.750000000
H     1.348000000    -5.175000000    -2.823000000
H     2.611000000    -4.814000000    -2.071000000
O     1.091000000    -0.575000000    -4.988000000
H     1.049000000     0.300000000    -4.604000000
H     0.341000000    -1.037000000    -4.614000000
O    -2.978000000     1.159000000     4.121000000
H    -2.347000000     0.480000000     3.884000000
H    -2.701000000     1.450000000     4.990000000
O    -3.633000000    -4.052000000     1.714000000
H    -3.086000000    -3.842000000     2.471000000
H    -4.488000000    -3.677000000     1.925000000
O     2.273000000    -3.275000000     2.503000000
H     2.649000000    -2.399000000     2.422000000
H     1.389000000    -3.127000000     2.839000000
O    -2.368000000     2.031000000     6.568000000
H    -2.532000000     2.065000000     7.511000000
H    -1.815000000     2.793000000     6.394000000
O    -3.258000000    -1.452000000     0.340000000
H    -2.913000000    -2.263000000     0.713000000
H    -2.482000000    -0.971000000     0.052000000
O     1.003000000     2.085000000    -4.456000000
H     1.663000000     2.684000000    -4.107000000
H     0.536000000     2.601000000    -5.113000000
O     3.705000000     0.335000000    -3.304000000
H     3.139000000    -0.387000000    -3.579000000
H     4.270000000     0.497000000    -4.059000000
O    -1.304000000     5.696000000     1.485000000
H    -1.393000000     5.314000000     2.358000000
H    -0.738000000     6.457000000     1.613000000
O    -2.906000000    -5.665000000     5.003000000
H    -3.523000000    -5.576000000     5.729000000
H    -2.664000000    -4.765000000     4.783000000
O     3.135000000    -5.032000000     5.462000000
H     3.223000000    -5.610000000     4.704000000
H     2.192000000    -4.887000000     5.544000000
O    -0.062000000    -5.160000000     3.214000000
H    -0.154000000    -5.727000000     3.980000000
H    -0.287000000    -4.287000000     3.534000000
O     4.837000000    -2.854000000     4.191000000
H     4.881000000    -3.744000000     3.842000000
H     3.986000000    -2.525000000     3.901000000
O    -0.924000000    -7.451000000     2.220000000
H    -1.840000000    -7.175000000     2.181000000
H    -0.466000000    -6.706000000     2.610000000
O    -4.445000000    -1.196000000     4.170000000
H    -5.032000000    -0.987000000     4.896000000
H    -4.051000000    -0.357000000     3.931000000
O     2.766000000    -6.318000000     3.177000000
H     2.133000000    -5.601000000     3.131000000
H     3.165000000    -6.341000000     2.307000000
O     3.495000000     3.814000000    -4.089000000
H     2.858000000     4.484000000    -4.334000000
H     3.392000000     3.720000000    -3.142000000
O     2.353000000     4.548000000    -1.211000000
H     1.423000000     4.662000000    -1.411000000
H     2.415000000     3.660000000    -0.860000000
O     1.542000000     5.635000000    -4.488000000
H     0.629000000     5.740000000    -4.756000000
H     1.841000000     6.525000000    -4.303000000
O     2.667000000     2.076000000     0.388000000
H     3.371000000     1.585000000    -0.036000000
H     1.869000000     1.602000000     0.153000000
O     2.503000000    -4.426000000     0.169000000
H     2.444000000    -4.062000000     1.052000000
H     3.139000000    -5.138000000     0.245000000
O    -4.322000000     0.717000000     1.854000000
H    -3.710000000     0.895000000     2.568000000
H    -3.908000000     0.014000000     1.353000000
O     0.999000000    -4.273000000    -5.879000000
H     1.875000000    -4.577000000    -5.640000000
H     0.490000000    -4.349000000    -5.072000000
O    -3.145000000     5.662000000    -0.608000000
H    -2.406000000     5.554000000    -0.009000000
H    -3.610000000     6.431000000    -0.279000000
O     4.999000000     1.453000000    -1.160000000
H     4.723000000     1.206000000    -2.043000000
H     5.817000000     1.932000000    -1.290000000
