158
-3033.91828
C     0.462000000     1.289000000     0.520000000
H     0.924000000     2.215000000     0.855000000
C     0.539000000     0.880000000    -0.812000000
H     0.961000000     1.482000000    -1.613000000
C    -0.029000000    -0.352000000    -1.205000000
H     0.118000000    -0.742000000    -2.217000000
C    -0.500000000    -1.210000000    -0.211000000
H    -0.991000000    -2.148000000    -0.460000000
C    -0.715000000    -0.716000000     1.081000000
H    -1.181000000    -1.360000000     1.822000000
C    -0.172000000     0.523000000     1.500000000
C     0.009000000     0.844000000     2.955000000
O     0.584000000     1.898000000     3.297000000
O    -0.501000000     0.163000000     3.827000000
O     3.123000000    -0.053000000    -5.277000000
H     3.210000000     0.187000000    -6.199000000
H     3.933000000    -0.519000000    -5.072000000
O    -1.244000000     2.378000000    -2.932000000
H    -0.542000000     2.047000000    -3.493000000
H    -1.697000000     1.593000000    -2.626000000
O    -2.621000000     0.062000000    -2.590000000
H    -3.503000000    -0.123000000    -2.912000000
H    -2.659000000    -0.145000000    -1.656000000
O     2.542000000    -3.856000000     1.774000000
H     3.292000000    -3.406000000     2.162000000
H     2.568000000    -4.735000000     2.152000000
O    -3.528000000    -0.061000000    -7.447000000
H    -3.125000000    -0.066000000    -6.579000000
H    -2.961000000    -0.622000000    -7.977000000
O    -1.864000000    -0.791000000    -5.425000000
H    -1.689000000    -1.721000000    -5.281000000
H    -1.752000000    -0.390000000    -4.564000000
O    -3.746000000     2.671000000    -4.500000000
H    -2.865000000     2.637000000    -4.127000000
H    -4.322000000     2.417000000    -3.778000000
O     1.401000000     6.307000000     2.927000000
H     2.254000000     5.954000000     2.674000000
H     1.053000000     5.671000000     3.552000000
O    -4.536000000    -2.651000000    -1.229000000
H    -5.150000000    -2.574000000    -0.500000000
H    -4.784000000    -1.945000000    -1.827000000
O     5.048000000     2.434000000     5.267000000
H     5.575000000     1.670000000     5.034000000
H     4.348000000     2.450000000     4.613000000
O    -0.584000000     0.242000000     8.298000000
H    -0.060000000     0.594000000     7.579000000
H    -1.371000000    -0.102000000     7.875000000
O     3.453000000    -0.440000000    -2.552000000
H     2.815000000    -0.551000000    -3.257000000
H     3.732000000    -1.330000000    -2.339000000
O     3.127000000     2.403000000     3.330000000
H     3.309000000     3.183000000     2.807000000
H     2.199000000     2.222000000     3.177000000
O     3.007000000    -0.321000000     1.924000000
H     2.963000000     0.615000000     2.119000000
H     2.532000000    -0.415000000     1.098000000
O    -1.462000000    -3.694000000    -5.572000000
H    -0.971000000    -4.415000000    -5.178000000
H    -2.333000000    -4.056000000    -5.731000000
O    -0.265000000    -5.019000000    -3.134000000
H     0.155000000    -4.757000000    -2.315000000
H    -1.183000000    -5.155000000    -2.900000000
O     0.964000000     6.309000000    -2.162000000
H     0.858000000     7.228000000    -2.409000000
H     0.853000000     6.303000000    -1.211000000
O    -0.723000000    -3.250000000    -8.022000000
H    -0.965000000    -3.336000000    -7.100000000
H    -1.004000000    -2.366000000    -8.262000000
O     1.550000000    -2.984000000    -3.621000000
H     0.799000000    -3.531000000    -3.851000000
H     1.577000000    -3.005000000    -2.664000000
O     0.807000000     0.953000000     6.055000000
H     0.233000000     0.841000000     5.297000000
H     1.675000000     0.704000000     5.737000000
O    -4.085000000    -0.273000000     3.302000000
H    -4.013000000    -0.351000000     4.253000000
H    -4.868000000     0.260000000     3.164000000
O    -3.221000000    -4.760000000    -2.853000000
H    -3.784000000    -4.488000000    -3.578000000
H    -3.476000000    -4.192000000    -2.126000000
O     1.633000000    -1.761000000     4.048000000
H     2.178000000    -1.312000000     3.402000000
H     0.760000000    -1.388000000     3.926000000
O    -2.552000000     2.999000000    -0.240000000
H    -2.923000000     2.188000000     0.107000000
H    -1.882000000     2.709000000    -0.860000000
O     0.681000000     1.609000000    -4.790000000
H     1.148000000     0.777000000    -4.866000000
H     1.064000000     2.162000000    -5.471000000
O    -3.145000000    -5.543000000     1.676000000
H    -2.990000000    -6.317000000     1.135000000
H    -4.098000000    -5.465000000     1.715000000
O     1.546000000    -3.780000000    -1.017000000
H     0.766000000    -3.534000000    -0.521000000
H     2.266000000    -3.688000000    -0.393000000
O     3.513000000     5.157000000    -3.695000000
H     3.443000000     6.110000000    -3.753000000
H     2.628000000     4.840000000    -3.873000000
O     3.835000000     2.814000000    -5.375000000
H     3.761000000     3.764000000    -5.285000000
H     3.847000000     2.489000000    -4.475000000
O     0.175000000     4.176000000     4.405000000
H     0.514000000     3.535000000     3.780000000
H     0.621000000     3.969000000     5.226000000
O    -3.519000000    -3.618000000     3.536000000
H    -3.070000000    -4.076000000     2.825000000
H    -2.912000000    -2.925000000     3.795000000
O    -3.997000000     0.738000000     6.746000000
H    -3.564000000     1.531000000     6.430000000
H    -4.904000000     1.005000000     6.898000000
O    -4.615000000     2.898000000     3.320000000
H    -3.686000000     2.744000000     3.492000000
H    -4.985000000     3.113000000     4.176000000
O     1.485000000     3.437000000     6.835000000
H     1.389000000     2.495000000     6.696000000
H     1.353000000     3.555000000     7.775000000
O     3.754000000    -3.170000000    -5.197000000
H     2.882000000    -3.227000000    -4.805000000
H     3.698000000    -3.712000000    -5.984000000
O    -3.398000000     0.568000000     0.557000000
H    -4.313000000     0.632000000     0.832000000
H    -2.913000000     0.433000000     1.371000000
O     3.585000000     4.784000000     2.268000000
H     4.305000000     4.885000000     2.891000000
H     3.952000000     4.255000000     1.560000000
O     0.194000000     4.794000000    -4.265000000
H     0.175000000     5.229000000    -3.413000000
H    -0.355000000     4.018000000    -4.150000000
O     2.584000000    -3.612000000     5.699000000
H     2.837000000    -4.286000000     5.069000000
H     2.211000000    -2.911000000     5.164000000
O     0.159000000    -4.330000000     3.407000000
H     0.886000000    -3.954000000     2.911000000
H     0.475000000    -4.359000000     4.310000000
O    -0.596000000    -4.819000000     0.665000000
H    -0.238000000    -4.903000000     1.548000000
H    -1.545000000    -4.847000000     0.787000000
O    -2.288000000     2.352000000     4.344000000
H    -1.511000000     2.875000000     4.541000000
H    -1.986000000     1.445000000     4.396000000
O    -5.406000000    -2.352000000     1.723000000
H    -4.930000000    -1.763000000     2.309000000
H    -5.070000000    -3.223000000     1.934000000
O     0.476000000     6.721000000     0.425000000
H     0.946000000     6.824000000     1.253000000
H    -0.041000000     7.522000000     0.342000000
O     4.774000000     3.170000000     0.474000000
H     5.537000000     3.696000000     0.712000000
H     4.999000000     2.281000000     0.750000000
O     4.359000000     1.921000000    -2.000000000
H     3.870000000     2.196000000    -1.225000000
H     4.088000000     1.014000000    -2.145000000
O     4.556000000    -2.679000000    -0.754000000
H     4.292000000    -2.303000000     0.086000000
H     5.472000000    -2.423000000    -0.854000000
O    -1.505000000     5.145000000     1.881000000
H    -0.593000000     5.433000000     1.874000000
H    -1.459000000     4.196000000     1.770000000
