158
-3026.29026
C    -0.543000000     0.960000000     1.031000000
H    -0.899000000     1.696000000     1.748000000
C    -0.298000000     1.245000000    -0.323000000
H    -0.468000000     2.277000000    -0.621000000
C     0.084000000     0.241000000    -1.210000000
H     0.069000000     0.397000000    -2.275000000
C     0.427000000    -0.987000000    -0.725000000
H     0.723000000    -1.772000000    -1.415000000
C     0.294000000    -1.236000000     0.620000000
H     0.444000000    -2.222000000     1.052000000
C    -0.360000000    -0.322000000     1.470000000
C    -0.454000000    -0.643000000     3.012000000
O    -0.799000000     0.228000000     3.752000000
O    -0.388000000    -1.752000000     3.382000000
O     3.904000000    -0.560000000    -7.511000000
H     3.410000000    -0.543000000    -6.691000000
H     4.169000000    -1.474000000    -7.612000000
O    -2.811000000     4.361000000    -4.059000000
H    -3.314000000     4.206000000    -3.260000000
H    -2.472000000     3.498000000    -4.299000000
O    -4.250000000     0.618000000    -4.337000000
H    -5.146000000     0.933000000    -4.219000000
H    -4.290000000    -0.310000000    -4.108000000
O     4.185000000    -0.909000000    -2.416000000
H     4.384000000    -1.160000000    -1.514000000
H     4.734000000    -0.142000000    -2.578000000
O    -1.593000000     0.958000000    -3.918000000
H    -1.490000000     0.040000000    -4.168000000
H    -2.531000000     1.058000000    -3.755000000
O    -3.760000000     2.267000000    -6.248000000
H    -3.601000000     1.597000000    -6.913000000
H    -3.938000000     1.773000000    -5.448000000
O    -0.839000000     4.225000000     2.933000000
H    -0.155000000     4.886000000     3.045000000
H    -0.771000000     3.675000000     3.713000000
O     3.629000000     1.064000000     5.087000000
H     4.099000000     0.439000000     4.535000000
H     2.946000000     1.420000000     4.518000000
O    -2.917000000     0.658000000     7.762000000
H    -2.379000000    -0.004000000     7.328000000
H    -3.044000000     1.336000000     7.099000000
O     2.886000000    -0.723000000    -4.796000000
H     2.159000000    -0.110000000    -4.693000000
H     3.320000000    -0.725000000    -3.942000000
O     3.331000000    -5.955000000    -3.156000000
H     3.265000000    -5.005000000    -3.059000000
H     2.426000000    -6.247000000    -3.268000000
O     1.926000000     1.777000000     2.949000000
H     1.524000000     2.431000000     3.521000000
H     1.221000000     1.156000000     2.764000000
O     3.470000000     0.193000000     1.211000000
H     4.232000000     0.524000000     0.733000000
H     3.190000000     0.930000000     1.753000000
O    -1.421000000    -1.581000000    -4.257000000
H    -0.790000000    -2.300000000    -4.268000000
H    -2.267000000    -2.006000000    -4.116000000
O    -1.974000000    -2.511000000    -6.940000000
H    -1.095000000    -2.882000000    -7.012000000
H    -1.856000000    -1.714000000    -6.423000000
O     0.657000000    -3.359000000    -4.296000000
H     0.745000000    -4.263000000    -3.993000000
H     1.077000000    -2.836000000    -3.613000000
O    -1.113000000    -0.892000000     6.340000000
H    -0.948000000    -0.715000000     5.414000000
H    -0.367000000    -0.502000000     6.795000000
O    -3.071000000    -3.055000000     3.560000000
H    -2.193000000    -2.715000000     3.386000000
H    -3.484000000    -2.383000000     4.102000000
O     1.927000000    -1.997000000     4.804000000
H     1.831000000    -1.241000000     5.383000000
H     1.092000000    -2.050000000     4.339000000
O     1.153000000     1.278000000    -4.740000000
H     0.305000000     1.230000000    -4.300000000
H     1.081000000     2.038000000    -5.318000000
O    -0.525000000    -4.220000000    -0.674000000
H    -1.213000000    -4.029000000    -0.036000000
H    -0.997000000    -4.511000000    -1.455000000
O     2.821000000    -3.319000000    -2.653000000
H     3.433000000    -2.597000000    -2.797000000
H     2.678000000    -3.326000000    -1.707000000
O     3.644000000     2.912000000    -4.188000000
H     3.252000000     3.704000000    -3.820000000
H     2.906000000     2.429000000    -4.560000000
O    -0.250000000     2.534000000     5.002000000
H    -0.401000000     1.661000000     4.641000000
H    -0.226000000     2.400000000     5.950000000
O    -3.159000000    -3.676000000     0.605000000
H    -3.329000000    -3.613000000     1.545000000
H    -3.962000000    -3.355000000     0.195000000
O    -3.214000000     2.366000000     5.734000000
H    -2.434000000     2.710000000     6.170000000
H    -3.875000000     3.048000000     5.853000000
O     2.734000000    -2.540000000     2.111000000
H     2.999000000    -1.720000000     1.694000000
H     2.598000000    -2.308000000     3.030000000
O     0.631000000    -3.596000000    -7.043000000
H     0.956000000    -3.417000000    -6.160000000
H     0.528000000    -4.548000000    -7.071000000
O    -2.833000000    -0.716000000    -0.445000000
H    -2.524000000    -1.448000000     0.089000000
H    -2.035000000    -0.323000000    -0.798000000
O     1.207000000     3.793000000    -6.016000000
H     1.728000000     4.569000000    -5.810000000
H     0.781000000     4.004000000    -6.846000000
O    -5.636000000     3.403000000     0.369000000
H    -4.848000000     2.912000000     0.603000000
H    -6.352000000     2.914000000     0.774000000
O    -2.321000000     4.734000000     0.655000000
H    -1.831000000     4.723000000     1.477000000
H    -2.043000000     3.940000000     0.199000000
O     5.594000000     1.380000000    -2.927000000
H     5.160000000     2.186000000    -3.205000000
H     6.234000000     1.203000000    -3.616000000
O    -2.914000000     6.053000000     3.911000000
H    -2.732000000     5.119000000     3.805000000
H    -3.582000000     6.243000000     3.252000000
O     2.815000000    -3.824000000     6.628000000
H     2.952000000    -4.717000000     6.313000000
H     2.355000000    -3.385000000     5.912000000
O     0.501000000    -4.135000000     3.126000000
H     1.296000000    -3.722000000     2.790000000
H    -0.094000000    -3.406000000     3.298000000
O    -0.416000000    -5.712000000     5.418000000
H    -1.274000000    -5.383000000     5.688000000
H    -0.279000000    -5.336000000     4.548000000
O     1.504000000    -5.856000000    -0.615000000
H     2.224000000    -5.272000000    -0.378000000
H     0.714000000    -5.373000000    -0.373000000
O    -3.472000000     1.141000000     3.209000000
H    -3.662000000     1.813000000     3.863000000
H    -2.647000000     0.751000000     3.499000000
O     3.478000000     4.675000000    -0.715000000
H     2.966000000     5.273000000    -1.258000000
H     3.273000000     3.805000000    -1.057000000
O     2.580000000     1.873000000    -1.452000000
H     2.881000000     1.084000000    -1.901000000
H     1.889000000     1.566000000    -0.865000000
O    -1.306000000    -3.250000000     7.927000000
H    -1.489000000    -2.578000000     7.270000000
H    -2.107000000    -3.774000000     7.963000000
O    -4.225000000    -1.322000000     5.439000000
H    -3.849000000    -0.457000000     5.276000000
H    -4.588000000    -1.263000000     6.323000000
O     1.372000000    -0.029000000     6.788000000
H     2.146000000     0.358000000     6.379000000
H     1.499000000     0.116000000     7.725000000
O     3.591000000    -3.802000000    -0.193000000
H     3.271000000    -3.565000000     0.678000000
H     4.357000000    -3.244000000    -0.326000000
O    -3.561000000     1.753000000     0.288000000
H    -3.679000000     1.301000000     1.124000000
H    -3.330000000     1.058000000    -0.329000000
O     4.545000000    -2.971000000    -4.986000000
H     4.430000000    -3.793000000    -5.463000000
H     3.754000000    -2.468000000    -5.180000000
O    -1.987000000     7.101000000    -1.124000000
H    -1.550000000     7.658000000    -0.482000000
H    -1.928000000     6.219000000    -0.757000000
