158
-3010.51620
C    -0.044000000     0.958000000     1.153000000
H    -0.330000000     1.785000000     1.798000000
C    -0.292000000     1.229000000    -0.199000000
H    -0.539000000     2.250000000    -0.480000000
C    -0.074000000     0.253000000    -1.181000000
H    -0.262000000     0.494000000    -2.255000000
C     0.282000000    -1.010000000    -0.854000000
H     0.373000000    -1.698000000    -1.691000000
C     0.396000000    -1.349000000     0.516000000
H     0.707000000    -2.351000000     0.800000000
C     0.234000000    -0.350000000     1.506000000
C     0.229000000    -0.702000000     3.018000000
O     0.111000000     0.086000000     3.932000000
O    -0.027000000    -1.892000000     3.303000000
O     0.513000000     1.965000000    -4.875000000
H     0.252000000     1.044000000    -4.892000000
H    -0.098000000     2.376000000    -4.263000000
O    -4.735000000     4.420000000    -2.073000000
H    -5.050000000     5.324000000    -2.073000000
H    -3.826000000     4.484000000    -1.779000000
O    -4.870000000    -2.297000000     1.947000000
H    -5.140000000    -3.129000000     1.557000000
H    -4.062000000    -2.504000000     2.416000000
O     1.295000000     4.038000000     0.696000000
H     0.839000000     3.928000000     1.531000000
H     1.783000000     3.223000000     0.580000000
O    -1.531000000    -3.408000000    -2.764000000
H    -1.743000000    -4.314000000    -2.540000000
H    -1.833000000    -2.898000000    -2.013000000
O     4.415000000    -4.807000000     1.244000000
H     5.230000000    -4.591000000     0.790000000
H     3.728000000    -4.432000000     0.693000000
O     3.524000000    -1.658000000    -1.081000000
H     3.141000000    -2.520000000    -1.241000000
H     3.030000000    -1.310000000    -0.339000000
O    -2.207000000     4.409000000    -1.019000000
H    -1.966000000     5.198000000    -0.534000000
H    -2.561000000     3.818000000    -0.354000000
O    -3.207000000     2.989000000     0.839000000
H    -3.222000000     3.299000000     1.745000000
H    -3.489000000     2.076000000     0.894000000
O     1.912000000     1.655000000     4.800000000
H     1.208000000     1.126000000     4.424000000
H     2.417000000     1.954000000     4.044000000
O    -3.232000000    -0.943000000     6.895000000
H    -3.275000000    -0.554000000     6.022000000
H    -2.389000000    -1.396000000     6.914000000
O    -2.438000000    -3.658000000    -5.275000000
H    -3.293000000    -3.243000000    -5.163000000
H    -2.074000000    -3.698000000    -4.391000000
O     2.915000000     6.317000000    -0.247000000
H     2.204000000     5.705000000    -0.056000000
H     2.551000000     6.910000000    -0.904000000
O     3.378000000    -0.279000000     1.891000000
H     3.061000000     0.354000000     1.247000000
H     4.305000000    -0.393000000     1.678000000
O    -5.476000000     1.261000000    -2.207000000
H    -5.858000000     0.564000000    -2.741000000
H    -4.743000000     0.842000000    -1.755000000
O    -0.643000000     2.274000000    -7.372000000
H    -0.060000000     2.259000000    -6.613000000
H    -1.506000000     2.062000000    -7.015000000
O    -2.280000000    -2.059000000    -7.544000000
H    -1.518000000    -1.479000000    -7.523000000
H    -2.565000000    -2.112000000    -6.632000000
O     2.997000000     2.948000000    -4.543000000
H     2.238000000     2.376000000    -4.657000000
H     2.626000000     3.786000000    -4.267000000
O    -2.500000000    -0.181000000     4.309000000
H    -1.572000000     0.049000000     4.352000000
H    -2.853000000     0.379000000     3.617000000
O    -0.593000000    -1.968000000     6.135000000
H    -0.588000000    -2.434000000     5.300000000
H    -0.076000000    -1.179000000     5.972000000
O    -0.646000000    -5.827000000     5.521000000
H    -0.839000000    -5.315000000     6.306000000
H    -0.018000000    -5.293000000     5.035000000
O    -4.126000000     3.403000000    -4.582000000
H    -4.957000000     3.581000000    -5.022000000
H    -4.331000000     3.461000000    -3.649000000
O     0.232000000     5.459000000    -3.949000000
H    -0.075000000     4.694000000    -3.464000000
H    -0.391000000     5.552000000    -4.670000000
O     4.878000000    -0.863000000     4.348000000
H     4.388000000    -0.833000000     3.526000000
H     5.761000000    -1.126000000     4.090000000
O    -3.931000000    -3.072000000    -1.670000000
H    -4.470000000    -3.088000000    -2.461000000
H    -4.476000000    -3.487000000    -1.001000000
O     0.946000000    -4.841000000    -3.850000000
H     0.007000000    -4.682000000    -3.759000000
H     1.145000000    -5.493000000    -3.177000000
O    -2.981000000     1.546000000    -6.301000000
H    -3.406000000     2.185000000    -5.729000000
H    -3.652000000     1.317000000    -6.944000000
O    -1.513000000     3.182000000    -3.463000000
H    -2.375000000     2.984000000    -3.828000000
H    -1.696000000     3.546000000    -2.597000000
O    -0.816000000     2.993000000     4.663000000
H    -1.142000000     2.094000000     4.620000000
H     0.022000000     2.922000000     5.121000000
O    -1.779000000    -4.525000000     0.650000000
H    -2.156000000    -3.930000000     0.002000000
H    -2.501000000    -5.104000000     0.892000000
O     0.542000000    -4.415000000     3.319000000
H     0.632000000    -4.804000000     2.449000000
H     0.372000000    -3.488000000     3.151000000
O     3.126000000    -3.234000000    -4.755000000
H     3.001000000    -2.949000000    -5.660000000
H     2.273000000    -3.580000000    -4.493000000
O    -0.554000000     4.862000000     2.895000000
H    -0.709000000     4.003000000     3.288000000
H    -1.031000000     5.472000000     3.459000000
O    -3.742000000    -0.164000000    -0.543000000
H    -3.900000000    -1.098000000    -0.404000000
H    -2.804000000    -0.054000000    -0.388000000
O     4.688000000     2.043000000    -1.926000000
H     5.519000000     1.922000000    -1.466000000
H     4.931000000     2.460000000    -2.753000000
O    -0.867000000     6.711000000     0.526000000
H    -0.356000000     6.092000000     1.047000000
H    -1.016000000     7.452000000     1.113000000
O    -4.026000000    -4.045000000     5.652000000
H    -3.665000000    -3.758000000     4.814000000
H    -3.666000000    -3.431000000     6.292000000
O    -2.540000000    -2.926000000     3.406000000
H    -1.887000000    -2.269000000     3.649000000
H    -2.072000000    -3.527000000     2.828000000
O     0.711000000    -5.281000000     0.520000000
H     0.544000000    -6.223000000     0.517000000
H    -0.146000000    -4.885000000     0.359000000
O     5.392000000     2.111000000    -5.222000000
H     5.281000000     1.738000000    -6.097000000
H     4.499000000     2.226000000    -4.896000000
O     3.781000000     0.155000000    -6.589000000
H     3.712000000     0.146000000    -5.634000000
H     2.874000000     0.121000000    -6.895000000
O     3.116000000    -4.699000000     4.043000000
H     2.210000000    -4.583000000     3.758000000
H     3.601000000    -4.871000000     3.236000000
O     1.356000000    -0.065000000    -7.823000000
H     0.793000000     0.655000000    -7.536000000
H     0.965000000    -0.845000000    -7.431000000
O     2.585000000     1.599000000     0.130000000
H     3.140000000     1.956000000    -0.563000000
H     1.805000000     1.283000000    -0.327000000
O     2.773000000     2.065000000     7.283000000
H     2.668000000     1.691000000     6.409000000
H     2.637000000     3.005000000     7.160000000
O     2.592000000    -4.130000000    -0.854000000
H     1.883000000    -4.580000000    -0.395000000
H     3.089000000    -4.832000000    -1.275000000
O     0.088000000    -1.046000000    -5.207000000
H    -0.467000000    -1.447000000    -4.537000000
H     0.623000000    -1.767000000    -5.538000000
O     3.292000000     0.030000000    -3.671000000
H     3.616000000     0.743000000    -3.121000000
H     3.376000000    -0.751000000    -3.124000000
