158
-3086.61191
C     1.480000000     0.220000000     0.164000000
H     2.565000000     0.257000000     0.219000000
C     0.729000000     0.834000000    -0.805000000
H     1.075000000     1.532000000    -1.563000000
C    -0.660000000     0.643000000    -0.828000000
H    -1.304000000     1.108000000    -1.563000000
C    -1.271000000    -0.301000000     0.034000000
H    -2.338000000    -0.459000000    -0.101000000
C    -0.449000000    -1.046000000     0.928000000
H    -0.974000000    -1.784000000     1.528000000
C     0.907000000    -0.702000000     1.045000000
C     1.684000000    -1.393000000     2.152000000
O     2.928000000    -1.422000000     2.090000000
O     1.170000000    -2.026000000     3.090000000
O     2.575000000    -2.681000000     5.272000000
H     2.872000000    -3.583000000     5.399000000
H     2.132000000    -2.692000000     4.424000000
O    -2.056000000    -2.936000000    -6.169000000
H    -1.868000000    -2.330000000    -5.452000000
H    -1.335000000    -2.810000000    -6.786000000
O    -2.792000000     1.784000000     4.734000000
H    -2.301000000     1.945000000     3.929000000
H    -2.153000000     1.917000000     5.435000000
O    -4.634000000     0.924000000    -5.806000000
H    -4.332000000     1.266000000    -4.964000000
H    -5.588000000     0.992000000    -5.765000000
O    -0.915000000    -3.110000000     7.083000000
H    -0.749000000    -2.481000000     7.785000000
H    -0.956000000    -2.578000000     6.288000000
O    -1.063000000    -1.871000000     4.653000000
H    -1.652000000    -2.513000000     4.258000000
H    -0.223000000    -2.017000000     4.218000000
O     0.066000000    -1.882000000    -2.976000000
H     0.570000000    -1.506000000    -3.698000000
H     0.366000000    -1.406000000    -2.201000000
O     6.286000000    -2.308000000    -0.047000000
H     7.067000000    -1.783000000     0.123000000
H     6.149000000    -2.804000000     0.760000000
O    -5.995000000     0.305000000     1.833000000
H    -6.886000000     0.007000000     2.019000000
H    -5.613000000    -0.396000000     1.305000000
O    -0.114000000     0.553000000     5.560000000
H    -0.353000000    -0.356000000     5.380000000
H    -0.557000000     0.759000000     6.383000000
O     5.130000000    -1.356000000     5.012000000
H     5.347000000    -1.581000000     4.107000000
H     4.209000000    -1.600000000     5.106000000
O    -1.640000000    -4.625000000     0.988000000
H    -0.968000000    -4.499000000     1.658000000
H    -1.148000000    -4.805000000     0.187000000
O    -3.404000000     1.537000000    -3.104000000
H    -3.137000000     2.456000000    -3.110000000
H    -3.806000000     1.410000000    -2.245000000
O    -2.555000000    -1.255000000    -3.572000000
H    -2.726000000    -0.314000000    -3.606000000
H    -1.661000000    -1.323000000    -3.235000000
O    -4.988000000     1.428000000    -0.618000000
H    -5.297000000     1.037000000     0.199000000
H    -4.813000000     2.343000000    -0.394000000
O    -0.500000000    -4.619000000    -1.514000000
H    -0.334000000    -3.676000000    -1.515000000
H    -1.092000000    -4.758000000    -2.253000000
O     3.560000000    -3.151000000    -0.334000000
H     3.220000000    -2.411000000     0.169000000
H     4.448000000    -2.889000000    -0.576000000
O    -0.992000000     3.843000000     0.366000000
H    -0.971000000     4.796000000     0.452000000
H    -1.088000000     3.690000000    -0.574000000
O     1.175000000     3.325000000     2.400000000
H     1.628000000     2.484000000     2.464000000
H     0.805000000     3.330000000     1.517000000
O     4.032000000    -5.319000000     2.463000000
H     4.023000000    -5.693000000     1.582000000
H     3.132000000    -5.029000000     2.610000000
O    -1.697000000     0.993000000    -6.498000000
H    -2.573000000     0.632000000    -6.364000000
H    -1.374000000     1.171000000    -5.614000000
O     5.011000000    -2.697000000     2.662000000
H     4.837000000    -3.564000000     2.296000000
H     4.159000000    -2.261000000     2.662000000
O    -4.989000000    -2.233000000    -2.833000000
H    -4.153000000    -1.943000000    -3.198000000
H    -5.510000000    -2.483000000    -3.596000000
O    -4.502000000    -1.415000000    -0.094000000
H    -4.398000000    -1.402000000    -1.045000000
H    -4.347000000    -2.326000000     0.153000000
O     6.291000000    -4.844000000     4.779000000
H     5.551000000    -4.273000000     4.570000000
H     6.311000000    -4.870000000     5.735000000
O    -5.060000000     2.860000000     1.919000000
H    -5.524000000     2.030000000     2.028000000
H    -4.134000000     2.619000000     1.921000000
O     1.754000000    -0.180000000    -4.272000000
H     1.047000000     0.414000000    -4.526000000
H     2.129000000    -0.475000000    -5.101000000
O    -3.303000000     4.143000000    -4.020000000
H    -3.945000000     4.571000000    -3.453000000
H    -3.498000000     4.475000000    -4.896000000
O    -1.008000000     3.861000000    -2.396000000
H    -1.686000000     4.064000000    -3.040000000
H    -0.465000000     4.649000000    -2.363000000
O    -4.273000000    -4.362000000     0.970000000
H    -3.328000000    -4.486000000     0.878000000
H    -4.617000000    -5.244000000     1.108000000
O     3.656000000     4.616000000     1.920000000
H     3.149000000     3.943000000     2.375000000
H     4.533000000     4.552000000     2.298000000
O     0.114000000     6.359000000    -1.545000000
H    -0.453000000     6.397000000    -0.775000000
H     0.940000000     6.003000000    -1.217000000
O     1.110000000    -4.692000000     2.518000000
H     1.273000000    -3.751000000     2.575000000
H     0.816000000    -4.938000000     3.395000000
O     5.721000000     1.457000000     4.179000000
H     5.365000000     0.660000000     4.573000000
H     6.582000000     1.199000000     3.851000000
O     3.783000000     0.881000000    -3.010000000
H     2.981000000     0.376000000    -3.145000000
H     4.197000000     0.473000000    -2.250000000
O     0.499000000    -6.849000000     1.079000000
H     0.154000000    -7.453000000     1.736000000
H     0.896000000    -6.143000000     1.588000000
O    -0.346000000    -5.083000000     5.044000000
H    -0.742000000    -4.471000000     5.665000000
H    -0.602000000    -5.948000000     5.364000000
O     2.310000000     5.165000000    -0.553000000
H     2.918000000     4.653000000    -1.086000000
H     2.582000000     4.995000000     0.349000000
O     4.847000000     1.839000000     0.817000000
H     4.282000000     1.584000000     1.546000000
H     4.579000000     2.734000000     0.609000000
O     2.570000000     5.267000000    -4.350000000
H     3.032000000     4.694000000    -3.738000000
H     2.773000000     4.908000000    -5.214000000
O    -2.929000000    -3.924000000     3.657000000
H    -2.535000000    -4.547000000     3.046000000
H    -3.623000000    -3.499000000     3.153000000
O     3.134000000     1.223000000     2.902000000
H     3.384000000     1.436000000     3.801000000
H     3.300000000     0.283000000     2.824000000
O     3.875000000     3.478000000    -2.339000000
H     4.727000000     3.884000000    -2.183000000
H     4.081000000     2.582000000    -2.605000000
O    -2.171000000     2.036000000     1.855000000
H    -1.555000000     2.640000000     1.442000000
H    -2.113000000     1.238000000     1.329000000
O     2.563000000    -0.033000000     6.193000000
H     1.748000000     0.253000000     5.782000000
H     2.478000000    -0.984000000     6.258000000
O    -4.757000000    -1.583000000     4.429000000
H    -5.185000000    -0.793000000     4.759000000
H    -3.915000000    -1.606000000     4.882000000
O    -0.314000000     2.106000000    -4.489000000
H     0.466000000     2.615000000    -4.709000000
H    -0.762000000     2.630000000    -3.824000000
O     5.544000000     0.061000000    -1.136000000
H     5.427000000     0.768000000    -0.501000000
H     5.852000000    -0.680000000    -0.615000000
