158
-3021.32915
C    -0.220000000     0.683000000     1.285000000
H    -0.231000000     1.281000000     2.192000000
C    -0.236000000     1.297000000     0.083000000
H    -0.458000000     2.358000000     0.000000000
C    -0.013000000     0.538000000    -1.098000000
H    -0.088000000     1.068000000    -2.103000000
C     0.175000000    -0.815000000    -0.996000000
H     0.396000000    -1.444000000    -1.854000000
C     0.240000000    -1.393000000     0.268000000
H     0.574000000    -2.427000000     0.325000000
C     0.017000000    -0.666000000     1.396000000
C     0.127000000    -1.321000000     2.762000000
O    -0.395000000    -0.787000000     3.740000000
O     0.679000000    -2.345000000     2.896000000
O    -2.583000000     3.805000000    -1.646000000
H    -2.765000000     2.887000000    -1.443000000
H    -3.442000000     4.226000000    -1.642000000
O     4.191000000     1.731000000     3.913000000
H     3.600000000     1.262000000     4.502000000
H     5.027000000     1.272000000     3.996000000
O     3.686000000    -5.131000000    -3.977000000
H     2.918000000    -5.051000000    -3.411000000
H     3.631000000    -4.375000000    -4.562000000
O     5.263000000    -4.831000000     1.064000000
H     5.128000000    -5.172000000     1.948000000
H     4.457000000    -4.356000000     0.864000000
O     3.897000000    -2.740000000    -1.577000000
H     4.700000000    -3.238000000    -1.728000000
H     3.207000000    -3.403000000    -1.547000000
O    -1.602000000     5.502000000     0.503000000
H    -1.758000000     4.795000000    -0.124000000
H    -0.819000000     5.230000000     0.981000000
O    -0.503000000     3.855000000     4.143000000
H    -0.968000000     3.090000000     4.482000000
H    -1.196000000     4.467000000     3.898000000
O     5.392000000    -2.386000000     2.477000000
H     4.471000000    -2.563000000     2.285000000
H     5.581000000    -1.571000000     2.011000000
O     0.144000000    -2.403000000     5.797000000
H     0.406000000    -3.247000000     5.429000000
H     0.060000000    -1.827000000     5.037000000
O     2.664000000     4.095000000     4.654000000
H     3.119000000     3.336000000     4.289000000
H     2.254000000     4.516000000     3.898000000
O    -3.179000000     3.495000000     6.533000000
H    -2.565000000     3.077000000     5.930000000
H    -2.768000000     3.405000000     7.393000000
O     1.409000000    -5.022000000    -1.897000000
H     1.012000000    -5.868000000    -2.103000000
H     1.380000000    -4.970000000    -0.941000000
O     2.715000000    -0.011000000    -7.423000000
H     3.611000000    -0.127000000    -7.105000000
H     2.171000000    -0.095000000    -6.641000000
O    -1.069000000    -0.512000000    -7.647000000
H    -0.364000000    -0.726000000    -8.257000000
H    -0.715000000    -0.731000000    -6.785000000
O    -0.798000000    -5.603000000    -4.595000000
H    -1.194000000    -5.694000000    -3.728000000
H    -0.305000000    -4.784000000    -4.549000000
O     0.465000000     4.907000000    -4.555000000
H     1.351000000     4.548000000    -4.512000000
H     0.453000000     5.419000000    -5.364000000
O    -2.172000000     1.465000000     4.611000000
H    -1.792000000     0.587000000     4.626000000
H    -2.758000000     1.460000000     3.854000000
O     3.241000000    -1.851000000     5.080000000
H     2.572000000    -2.531000000     5.155000000
H     2.747000000    -1.044000000     4.937000000
O    -1.069000000    -7.205000000     3.570000000
H    -0.144000000    -7.449000000     3.569000000
H    -1.067000000    -6.253000000     3.475000000
O     1.339000000    -5.816000000     0.749000000
H     1.757000000    -5.071000000     1.182000000
H     1.987000000    -6.518000000     0.802000000
O     0.250000000     4.510000000    -1.938000000
H     0.115000000     4.907000000    -2.799000000
H    -0.484000000     3.905000000    -1.836000000
O    -3.113000000    -2.421000000     7.289000000
H    -2.801000000    -1.732000000     6.703000000
H    -3.048000000    -3.224000000     6.771000000
O     0.720000000    -3.313000000    -4.713000000
H     1.483000000    -3.379000000    -5.286000000
H     0.470000000    -2.389000000    -4.751000000
O    -0.010000000    -1.418000000     8.274000000
H    -0.204000000    -1.745000000     7.396000000
H     0.889000000    -1.700000000     8.441000000
O     0.037000000    -0.836000000    -4.858000000
H     0.530000000    -0.018000000    -4.784000000
H    -0.874000000    -0.580000000    -4.713000000
O    -3.543000000     1.297000000    -1.265000000
H    -4.380000000     1.506000000    -1.680000000
H    -3.757000000     0.624000000    -0.619000000
O     1.769000000     0.636000000     4.510000000
H     0.960000000     0.125000000     4.536000000
H     1.869000000     0.971000000     5.402000000
O     2.857000000    -3.637000000     2.129000000
H     2.056000000    -3.136000000     2.282000000
H     3.112000000    -3.952000000     2.996000000
O     0.756000000     4.988000000     1.792000000
H     0.488000000     4.566000000     2.609000000
H     1.143000000     5.819000000     2.068000000
O    -2.847000000    -1.189000000     0.294000000
H    -2.760000000    -1.782000000    -0.452000000
H    -2.057000000    -0.650000000     0.267000000
O    -2.457000000     3.539000000    -4.720000000
H    -2.733000000     3.976000000    -3.914000000
H    -1.604000000     3.924000000    -4.921000000
O    -2.419000000     0.562000000    -4.202000000
H    -2.496000000     1.373000000    -4.704000000
H    -2.773000000     0.779000000    -3.340000000
O    -5.719000000    -1.771000000     3.767000000
H    -4.766000000    -1.683000000     3.737000000
H    -5.994000000    -1.159000000     4.450000000
O    -4.359000000     1.846000000     2.181000000
H    -4.454000000     2.387000000     2.966000000
H    -3.725000000     2.317000000     1.641000000
O     2.459000000     4.508000000    -0.448000000
H     1.761000000     4.636000000    -1.091000000
H     2.087000000     4.823000000     0.376000000
O     3.523000000     6.083000000    -2.526000000
H     3.479000000     5.480000000    -3.267000000
H     3.396000000     5.527000000    -1.757000000
O     1.689000000    -4.703000000     5.318000000
H     2.175000000    -5.049000000     4.570000000
H     2.252000000    -4.881000000     6.072000000
O    -0.644000000    -4.579000000     3.507000000
H    -0.178000000    -3.743000000     3.531000000
H    -1.309000000    -4.464000000     2.829000000
O     3.726000000     1.451000000    -1.265000000
H     4.065000000     2.296000000    -0.970000000
H     3.632000000     0.937000000    -0.463000000
O    -2.226000000    -4.188000000     1.453000000
H    -2.160000000    -3.269000000     1.194000000
H    -3.166000000    -4.349000000     1.528000000
O    -1.313000000    -6.555000000     0.550000000
H    -0.368000000    -6.621000000     0.687000000
H    -1.520000000    -5.642000000     0.748000000
O     3.268000000     4.073000000    -4.883000000
H     2.781000000     3.889000000    -5.685000000
H     4.087000000     3.586000000    -4.983000000
O    -2.681000000    -2.810000000    -1.828000000
H    -2.259000000    -3.667000000    -1.765000000
H    -3.391000000    -2.938000000    -2.457000000
O     3.361000000    -0.112000000     1.210000000
H     3.130000000    -0.411000000     2.090000000
H     2.525000000     0.124000000     0.809000000
O     2.503000000     1.331000000     6.859000000
H     2.029000000     1.411000000     7.687000000
H     2.998000000     2.147000000     6.787000000
O    -3.090000000    -1.927000000     3.987000000
H    -3.133000000    -2.790000000     4.398000000
H    -2.172000000    -1.669000000     4.069000000
O     1.727000000     1.205000000    -4.450000000
H     2.345000000     0.595000000    -4.048000000
H     1.768000000     1.986000000    -3.897000000
O     3.588000000    -0.498000000    -3.166000000
H     3.537000000     0.165000000    -2.477000000
H     3.196000000    -1.279000000    -2.776000000
