158
-3031.68344
C     0.925000000    -0.830000000     0.783000000
H     1.677000000    -1.476000000     1.228000000
C     1.332000000     0.356000000     0.136000000
H     2.365000000     0.693000000     0.172000000
C     0.338000000     1.041000000    -0.607000000
H     0.626000000     1.895000000    -1.225000000
C    -0.921000000     0.550000000    -0.612000000
H    -1.639000000     1.000000000    -1.294000000
C    -1.300000000    -0.533000000     0.151000000
H    -2.292000000    -0.960000000     0.020000000
C    -0.398000000    -1.283000000     0.818000000
C    -0.779000000    -2.556000000     1.629000000
O     0.021000000    -3.028000000     2.422000000
O    -1.836000000    -3.113000000     1.353000000
O     0.897000000    -1.268000000     4.111000000
H     0.228000000    -0.613000000     3.911000000
H     0.747000000    -1.965000000     3.471000000
O    -0.326000000    -3.204000000    -4.231000000
H    -0.065000000    -2.977000000    -3.339000000
H    -0.779000000    -4.042000000    -4.142000000
O    -4.718000000    -0.319000000     3.095000000
H    -4.537000000     0.450000000     2.554000000
H    -4.605000000    -1.061000000     2.502000000
O    -0.685000000     3.846000000    -2.268000000
H    -1.364000000     3.694000000    -1.611000000
H    -0.095000000     4.480000000    -1.861000000
O    -4.820000000    -4.879000000    -2.363000000
H    -4.343000000    -4.050000000    -2.398000000
H    -5.080000000    -5.044000000    -3.270000000
O    -1.068000000    -6.535000000     6.045000000
H    -0.711000000    -5.944000000     5.383000000
H    -0.890000000    -6.098000000     6.878000000
O     2.195000000    -5.186000000     4.883000000
H     2.722000000    -5.695000000     5.498000000
H     2.114000000    -4.324000000     5.293000000
O    -2.243000000     4.028000000    -5.981000000
H    -2.914000000     4.694000000    -5.828000000
H    -2.453000000     3.329000000    -5.362000000
O    -1.700000000    -3.795000000     4.473000000
H    -1.108000000    -3.405000000     3.829000000
H    -1.310000000    -3.577000000     5.319000000
O    -2.907000000    -5.252000000     2.685000000
H    -2.467000000    -4.678000000     2.057000000
H    -2.645000000    -4.915000000     3.542000000
O    -4.542000000    -2.679000000     1.637000000
H    -3.588000000    -2.661000000     1.565000000
H    -4.779000000    -3.589000000     1.458000000
O    -4.032000000     4.106000000    -2.678000000
H    -3.594000000     4.950000000    -2.790000000
H    -3.748000000     3.588000000    -3.431000000
O    -4.090000000    -2.055000000    -2.596000000
H    -4.569000000    -1.924000000    -1.778000000
H    -3.292000000    -2.516000000    -2.335000000
O    -0.741000000    -7.451000000     1.425000000
H    -1.173000000    -7.930000000     2.133000000
H    -0.492000000    -6.615000000     1.819000000
O     0.074000000     1.519000000     2.881000000
H     0.027000000     0.832000000     2.216000000
H     0.924000000     1.935000000     2.737000000
O    -5.847000000    -1.631000000    -0.526000000
H    -6.489000000    -0.955000000    -0.311000000
H    -5.561000000    -1.969000000     0.323000000
O     1.267000000     5.654000000    -1.125000000
H     1.957000000     5.172000000    -0.670000000
H     1.036000000     6.365000000    -0.527000000
O     0.004000000     4.955000000     2.024000000
H     0.408000000     5.812000000     2.163000000
H     0.725000000     4.394000000     1.736000000
O     2.910000000    -6.926000000     0.078000000
H     3.783000000    -6.555000000     0.203000000
H     2.391000000    -6.563000000     0.796000000
O    -5.850000000    -4.696000000     0.272000000
H    -5.318000000    -5.490000000     0.325000000
H    -5.934000000    -4.525000000    -0.666000000
O    -4.357000000     1.684000000     1.383000000
H    -3.855000000     2.438000000     1.690000000
H    -4.256000000     1.700000000     0.431000000
O    -0.175000000     1.972000000    -4.390000000
H     0.097000000     2.565000000    -5.090000000
H    -0.410000000     2.550000000    -3.664000000
O     4.516000000    -1.801000000    -0.239000000
H     4.313000000    -1.168000000    -0.928000000
H     4.315000000    -2.652000000    -0.627000000
O    -2.886000000     4.189000000    -0.004000000
H    -3.537000000     4.482000000     0.634000000
H    -3.376000000     4.101000000    -0.822000000
O     1.092000000     4.166000000    -5.771000000
H     1.313000000     4.409000000    -4.871000000
H     1.114000000     4.992000000    -6.254000000
O     5.447000000     2.290000000    -3.437000000
H     4.816000000     2.166000000    -4.147000000
H     5.667000000     3.220000000    -3.473000000
O    -2.029000000     6.571000000     0.610000000
H    -1.149000000     6.540000000     0.985000000
H    -2.295000000     5.654000000     0.545000000
O    -2.094000000    -3.818000000    -1.137000000
H    -1.197000000    -3.585000000    -1.377000000
H    -2.148000000    -3.630000000    -0.200000000
O     1.128000000    -5.292000000     2.269000000
H     0.743000000    -4.415000000     2.282000000
H     1.696000000    -5.315000000     3.039000000
O     6.021000000     0.988000000     2.036000000
H     5.695000000     1.421000000     1.247000000
H     5.321000000     0.385000000     2.285000000
O    -3.364000000     1.903000000    -4.432000000
H    -4.097000000     1.338000000    -4.676000000
H    -2.663000000     1.296000000    -4.194000000
O     0.698000000    -2.846000000    -1.792000000
H     1.544000000    -2.789000000    -2.236000000
H     0.668000000    -2.068000000    -1.235000000
O     0.769000000     6.923000000    -3.810000000
H     0.829000000     7.868000000    -3.670000000
H     0.597000000     6.562000000    -2.940000000
O     4.395000000     5.173000000     0.179000000
H     5.280000000     5.525000000     0.091000000
H     4.497000000     4.232000000     0.040000000
O     7.180000000    -1.275000000     0.316000000
H     6.263000000    -1.518000000     0.442000000
H     7.401000000    -0.763000000     1.094000000
O    -4.076000000    -6.817000000     0.520000000
H    -3.617000000    -6.289000000     1.174000000
H    -3.495000000    -6.814000000    -0.240000000
O     2.066000000    -2.576000000     6.470000000
H     1.648000000    -2.119000000     5.741000000
H     1.344000000    -2.797000000     7.060000000
O     4.024000000     0.565000000    -1.955000000
H     3.130000000     0.549000000    -2.297000000
H     4.516000000     1.079000000    -2.594000000
O     5.135000000    -0.595000000     5.020000000
H     4.512000000    -0.025000000     5.471000000
H     4.716000000    -0.795000000     4.183000000
O     3.914000000    -0.758000000     2.538000000
H     3.925000000    -1.278000000     1.734000000
H     3.041000000    -0.365000000     2.557000000
O     2.974000000     2.461000000     1.998000000
H     3.384000000     3.109000000     2.570000000
H     3.442000000     2.544000000     1.167000000
O    -2.390000000     3.424000000     2.897000000
H    -1.951000000     4.014000000     2.284000000
H    -1.681000000     2.907000000     3.281000000
O     1.903000000     2.477000000    -7.732000000
H     1.822000000     2.696000000    -6.803000000
H     2.108000000     1.542000000    -7.740000000
O     2.174000000    -0.141000000    -4.183000000
H     1.647000000     0.380000000    -4.788000000
H     2.403000000    -0.927000000    -4.679000000
O     4.774000000     2.333000000    -0.135000000
H     5.529000000     2.704000000    -0.593000000
H     4.494000000     1.603000000    -0.687000000
O    -0.572000000     0.989000000     5.445000000
H    -0.470000000     1.333000000     4.557000000
H    -1.515000000     0.858000000     5.543000000
O    -4.872000000     1.809000000    -1.509000000
H    -4.610000000     2.666000000    -1.845000000
H    -4.813000000     1.227000000    -2.267000000
O    -1.651000000    -0.334000000    -4.659000000
H    -0.909000000     0.223000000    -4.422000000
H    -1.282000000    -1.215000000    -4.713000000
