158
-3037.70526
C     0.508000000    -0.424000000     1.315000000
H     0.955000000    -1.056000000     2.078000000
C     1.250000000    -0.069000000     0.205000000
H     2.327000000    -0.214000000     0.202000000
C     0.633000000     0.452000000    -0.924000000
H     1.190000000     0.786000000    -1.821000000
C    -0.718000000     0.450000000    -1.063000000
H    -1.202000000     0.857000000    -1.947000000
C    -1.451000000     0.023000000     0.012000000
H    -2.529000000    -0.097000000    -0.062000000
C    -0.899000000    -0.483000000     1.206000000
C    -1.583000000    -1.148000000     2.360000000
O    -0.968000000    -1.298000000     3.414000000
O    -2.716000000    -1.520000000     2.215000000
O    -6.307000000    -1.466000000     2.668000000
H    -5.480000000    -1.328000000     3.130000000
H    -6.976000000    -1.154000000     3.276000000
O     0.390000000     0.809000000     4.439000000
H    -0.397000000     1.129000000     4.879000000
H     0.164000000    -0.078000000     4.159000000
O     4.389000000    -4.421000000    -1.344000000
H     5.162000000    -4.845000000    -1.717000000
H     4.707000000    -4.004000000    -0.543000000
O    -3.816000000     1.078000000     2.586000000
H    -3.377000000     1.825000000     2.178000000
H    -3.220000000     0.343000000     2.443000000
O     1.726000000     4.121000000    -1.568000000
H     1.842000000     5.054000000    -1.389000000
H     2.594000000     3.741000000    -1.432000000
O    -1.392000000    -5.302000000     5.021000000
H    -0.518000000    -5.105000000     4.681000000
H    -1.984000000    -4.789000000     4.471000000
O     2.128000000    -3.783000000     4.263000000
H     2.682000000    -4.086000000     4.982000000
H     2.634000000    -3.084000000     3.848000000
O     1.625000000    -0.028000000    -6.953000000
H     2.316000000    -0.288000000    -6.343000000
H     1.616000000    -0.721000000    -7.613000000
O     3.515000000    -0.756000000    -5.056000000
H     3.197000000    -1.446000000    -4.473000000
H     3.928000000    -1.226000000    -5.780000000
O    -5.818000000     1.313000000     0.672000000
H    -5.284000000     1.155000000     1.451000000
H    -5.278000000     1.883000000     0.123000000
O    -0.704000000     5.436000000    -4.963000000
H    -1.372000000     6.103000000    -5.128000000
H    -0.541000000     5.490000000    -4.021000000
O    -1.990000000    -1.663000000     6.039000000
H    -1.768000000    -1.502000000     5.122000000
H    -1.165000000    -1.936000000     6.441000000
O    -3.349000000    -3.578000000     3.815000000
H    -3.123000000    -2.917000000     3.161000000
H    -3.707000000    -3.076000000     4.548000000
O    -4.436000000    -1.610000000     0.147000000
H    -3.817000000    -1.689000000     0.872000000
H    -5.237000000    -2.024000000     0.469000000
O    -2.478000000     3.672000000    -2.513000000
H    -3.025000000     4.410000000    -2.781000000
H    -2.798000000     2.935000000    -3.035000000
O     0.170000000    -2.431000000     7.652000000
H    -0.033000000    -1.566000000     8.009000000
H     0.742000000    -2.831000000     8.307000000
O     3.006000000    -3.302000000    -3.461000000
H     2.147000000    -3.455000000    -3.066000000
H     3.631000000    -3.524000000    -2.771000000
O    -3.785000000    -0.330000000    -2.268000000
H    -4.576000000    -0.215000000    -2.794000000
H    -4.089000000    -0.758000000    -1.467000000
O    -5.466000000     2.258000000     4.369000000
H    -6.008000000     1.551000000     4.020000000
H    -4.704000000     2.285000000     3.790000000
O    -1.905000000    -4.482000000     0.522000000
H    -1.570000000    -4.134000000    -0.303000000
H    -1.223000000    -4.280000000     1.163000000
O     0.086000000     2.469000000     1.722000000
H    -0.020000000     1.915000000     0.948000000
H     0.241000000     1.853000000     2.438000000
O    -7.072000000    -0.961000000    -1.358000000
H    -6.702000000    -0.445000000    -0.641000000
H    -7.090000000    -1.858000000    -1.024000000
O     2.366000000     4.583000000     2.315000000
H     3.141000000     4.393000000     1.788000000
H     1.632000000     4.278000000     1.781000000
O     3.413000000    -3.818000000     1.667000000
H     4.362000000    -3.826000000     1.789000000
H     3.111000000    -3.067000000     2.178000000
O    -2.382000000     3.418000000     2.827000000
H    -2.404000000     4.179000000     3.406000000
H    -1.450000000     3.247000000     2.690000000
O     0.468000000     2.425000000    -3.577000000
H    -0.414000000     2.763000000    -3.736000000
H     0.879000000     3.083000000    -3.015000000
O     5.640000000     3.321000000    -3.996000000
H     5.588000000     3.784000000    -3.160000000
H     4.828000000     2.816000000    -4.041000000
O     6.465000000    -1.574000000    -0.317000000
H     6.037000000    -1.656000000    -1.169000000
H     6.148000000    -0.741000000     0.031000000
O    -4.956000000    -1.705000000     5.542000000
H    -4.088000000    -1.445000000     5.850000000
H    -5.504000000    -0.935000000     5.694000000
O    -0.780000000     5.105000000    -0.438000000
H    -0.088000000     4.562000000    -0.060000000
H    -1.151000000     4.567000000    -1.138000000
O    -4.282000000    -5.014000000    -0.426000000
H    -3.881000000    -5.881000000    -0.492000000
H    -3.546000000    -4.422000000    -0.269000000
O    -0.027000000    -4.088000000     2.515000000
H    -0.405000000    -3.233000000     2.720000000
H     0.867000000    -4.042000000     2.853000000
O    -2.729000000     1.597000000    -4.394000000
H    -3.221000000     0.793000000    -4.225000000
H    -2.075000000     1.345000000    -5.046000000
O    -1.647000000    -2.701000000    -1.656000000
H    -0.879000000    -2.334000000    -2.094000000
H    -2.190000000    -1.941000000    -1.447000000
O     4.484000000     3.762000000     0.638000000
H     4.229000000     3.196000000    -0.091000000
H     4.780000000     4.571000000     0.221000000
O    -5.271000000    -4.926000000     2.455000000
H    -4.537000000    -4.443000000     2.836000000
H    -5.982000000    -4.287000000     2.411000000
O     2.135000000    -0.312000000     6.565000000
H     1.967000000     0.308000000     5.856000000
H     1.347000000    -0.854000000     6.601000000
O     4.299000000     1.755000000    -1.201000000
H     3.773000000     1.344000000    -1.888000000
H     5.171000000     1.374000000    -1.307000000
O     4.839000000     0.581000000     4.918000000
H     4.183000000     1.118000000     4.474000000
H     4.535000000     0.532000000     5.825000000
O     3.899000000    -1.686000000     3.501000000
H     3.965000000    -1.074000000     2.768000000
H     4.214000000    -1.190000000     4.256000000
O     2.863000000     1.934000000     3.880000000
H     1.972000000     1.667000000     4.106000000
H     2.876000000     2.879000000     4.034000000
O    -2.322000000    -1.083000000    -6.129000000
H    -1.463000000    -1.477000000    -5.981000000
H    -2.303000000    -0.804000000    -7.045000000
O     3.185000000     1.354000000    -3.596000000
H     2.254000000     1.563000000    -3.672000000
H     3.334000000     0.680000000    -4.259000000
O     2.156000000    -5.762000000    -0.048000000
H     2.271000000    -5.215000000     0.729000000
H     2.803000000    -5.431000000    -0.671000000
O     4.193000000     0.449000000     1.518000000
H     3.552000000     1.051000000     1.895000000
H     4.122000000     0.585000000     0.573000000
O    -1.343000000     2.233000000     5.982000000
H    -2.252000000     2.443000000     6.195000000
H    -0.827000000     2.726000000     6.621000000
O    -3.713000000     3.481000000    -0.058000000
H    -3.134000000     3.690000000     0.675000000
H    -3.146000000     3.516000000    -0.828000000
O    -0.642000000     1.281000000    -5.802000000
H    -0.039000000     0.960000000    -6.473000000
H    -0.220000000     1.056000000    -4.973000000
