158
-3031.51236
C     0.060000000    -1.346000000     0.628000000
H     0.239000000    -2.383000000     0.901000000
C     1.122000000    -0.586000000     0.084000000
H     2.129000000    -0.975000000     0.205000000
C     0.928000000     0.637000000    -0.444000000
H     1.866000000     1.136000000    -0.848000000
C    -0.361000000     1.180000000    -0.572000000
H    -0.495000000     2.198000000    -0.929000000
C    -1.417000000     0.447000000    -0.046000000
H    -2.372000000     0.961000000    -0.122000000
C    -1.247000000    -0.812000000     0.535000000
C    -2.446000000    -1.601000000     1.011000000
O    -2.286000000    -2.657000000     1.649000000
O    -3.579000000    -1.241000000     0.827000000
O     2.581000000    -4.778000000    -2.087000000
H     2.687000000    -5.383000000    -1.354000000
H     3.383000000    -4.256000000    -2.084000000
O    -4.306000000     4.200000000    -1.376000000
H    -4.142000000     4.988000000    -1.895000000
H    -4.199000000     3.479000000    -1.996000000
O    -1.963000000    -1.110000000     4.728000000
H    -2.744000000    -1.141000000     4.175000000
H    -1.391000000    -0.474000000     4.299000000
O     7.416000000    -1.262000000    -1.767000000
H     7.252000000    -0.325000000    -1.870000000
H     6.906000000    -1.512000000    -0.996000000
O     3.105000000    -3.244000000    -4.663000000
H     3.837000000    -3.772000000    -4.344000000
H     2.561000000    -3.097000000    -3.889000000
O     7.518000000    -0.618000000     1.488000000
H     6.697000000    -0.465000000     1.019000000
H     7.831000000     0.258000000     1.714000000
O    -4.045000000     3.576000000     1.528000000
H    -4.247000000     2.688000000     1.236000000
H    -4.123000000     4.112000000     0.739000000
O    -2.950000000    -2.682000000    -3.347000000
H    -2.987000000    -3.596000000    -3.065000000
H    -3.503000000    -2.216000000    -2.720000000
O     5.322000000     1.083000000    -1.395000000
H     4.635000000     0.488000000    -1.697000000
H     5.505000000     1.641000000    -2.150000000
O     1.762000000    -5.674000000     2.603000000
H     1.751000000    -6.381000000     1.958000000
H     0.920000000    -5.233000000     2.490000000
O    -4.851000000    -1.461000000     3.339000000
H    -4.990000000    -2.406000000     3.273000000
H    -4.436000000    -1.222000000     2.511000000
O    -5.089000000     1.124000000     0.520000000
H    -5.802000000     1.050000000    -0.114000000
H    -4.549000000     0.348000000     0.365000000
O    -5.390000000    -3.497000000     0.699000000
H    -4.898000000    -2.718000000     0.440000000
H    -4.802000000    -4.227000000     0.506000000
O    -0.794000000    -4.638000000     2.420000000
H    -0.817000000    -4.363000000     3.336000000
H    -1.342000000    -4.000000000     1.964000000
O    -1.703000000     6.116000000    -0.451000000
H    -1.715000000     6.682000000     0.321000000
H    -2.626000000     5.958000000    -0.647000000
O     4.752000000    -3.312000000    -2.108000000
H     5.351000000    -2.906000000    -2.733000000
H     5.264000000    -3.394000000    -1.303000000
O    -4.759000000    -1.384000000    -1.529000000
H    -5.546000000    -0.927000000    -1.229000000
H    -4.207000000    -1.446000000    -0.750000000
O    -5.296000000    -0.634000000     5.945000000
H    -4.476000000    -0.184000000     6.148000000
H    -5.132000000    -1.060000000     5.103000000
O    -3.995000000     2.908000000    -4.294000000
H    -4.129000000     2.025000000    -4.639000000
H    -3.069000000     3.089000000    -4.452000000
O    -3.925000000    -4.301000000     3.455000000
H    -3.664000000    -5.217000000     3.363000000
H    -3.413000000    -3.837000000     2.793000000
O     0.850000000     2.795000000     1.860000000
H     0.875000000     2.256000000     1.069000000
H     0.735000000     3.689000000     1.537000000
O    -8.104000000    -2.581000000     0.410000000
H    -8.495000000    -2.660000000    -0.460000000
H    -7.231000000    -2.962000000     0.316000000
O    -0.844000000    -6.345000000     0.229000000
H    -0.096000000    -6.894000000     0.467000000
H    -0.895000000    -5.694000000     0.929000000
O     2.800000000     2.544000000     3.882000000
H     2.967000000     1.700000000     4.300000000
H     2.194000000     2.343000000     3.168000000
O     3.685000000    -3.705000000     1.926000000
H     3.227000000    -3.150000000     2.557000000
H     3.249000000    -4.554000000     1.994000000
O     2.909000000     5.958000000     3.366000000
H     2.984000000     5.425000000     2.574000000
H     3.591000000     5.621000000     3.946000000
O    -0.171000000    -3.290000000    -3.592000000
H    -1.120000000    -3.401000000    -3.660000000
H    -0.055000000    -2.372000000    -3.346000000
O    -0.767000000    -5.779000000    -2.735000000
H    -0.283000000    -4.992000000    -2.985000000
H    -0.628000000    -5.856000000    -1.792000000
O     3.407000000     0.058000000    -2.909000000
H     3.151000000     0.123000000    -3.829000000
H     2.890000000    -0.671000000    -2.567000000
O    -0.494000000     0.943000000     3.451000000
H     0.233000000     0.691000000     4.021000000
H    -0.094000000     1.505000000     2.787000000
O     5.417000000     1.348000000     1.232000000
H     5.193000000     1.266000000     0.305000000
H     5.503000000     2.291000000     1.374000000
O     4.327000000    -0.380000000     3.113000000
H     4.740000000     0.128000000     2.414000000
H     4.959000000    -1.071000000     3.312000000
O     0.888000000     4.958000000     0.463000000
H     1.495000000     5.649000000     0.198000000
H     0.040000000     5.240000000     0.119000000
O    -6.638000000    -5.274000000     2.248000000
H    -5.981000000    -5.902000000     2.547000000
H    -6.129000000    -4.530000000     1.927000000
O     3.013000000     4.672000000    -5.671000000
H     3.962000000     4.786000000    -5.608000000
H     2.809000000     4.007000000    -5.013000000
O     5.867000000    -2.976000000     0.404000000
H     5.132000000    -3.302000000     0.923000000
H     6.517000000    -2.704000000     1.052000000
O    -0.330000000     2.928000000    -3.428000000
H    -0.528000000     3.838000000    -3.650000000
H    -0.794000000     2.414000000    -4.088000000
O     0.215000000    -0.707000000    -2.944000000
H     0.432000000    -0.511000000    -2.033000000
H    -0.403000000    -0.022000000    -3.197000000
O    -4.171000000     0.074000000    -4.682000000
H    -4.980000000    -0.207000000    -5.109000000
H    -3.904000000    -0.680000000    -4.156000000
O     4.961000000     5.642000000    -0.507000000
H     4.655000000     4.844000000    -0.075000000
H     5.781000000     5.855000000    -0.062000000
O    -0.673000000    -3.632000000     5.218000000
H    -1.217000000    -4.261000000     5.692000000
H    -1.299000000    -3.063000000     4.770000000
O     2.624000000     2.785000000    -3.626000000
H     1.737000000     3.085000000    -3.425000000
H     2.690000000     1.929000000    -3.203000000
O     3.983000000     3.720000000     1.201000000
H     3.203000000     3.560000000     0.670000000
H     3.887000000     3.134000000     1.952000000
O     2.290000000    -2.035000000     3.512000000
H     1.831000000    -1.593000000     4.226000000
H     2.816000000    -1.347000000     3.104000000
O    -3.358000000    -5.364000000     0.103000000
H    -3.199000000    -5.219000000    -0.830000000
H    -2.652000000    -5.948000000     0.379000000
O    -1.026000000     5.600000000    -3.059000000
H    -0.955000000     5.654000000    -2.106000000
H    -0.384000000     6.231000000    -3.383000000
O    -6.650000000     0.887000000    -1.610000000
H    -6.811000000     1.816000000    -1.446000000
H    -7.340000000     0.627000000    -2.220000000
O    -1.657000000     1.173000000    -5.036000000
H    -1.419000000     1.408000000    -5.933000000
H    -2.496000000     0.719000000    -5.122000000
