158
-3065.85991
C    -0.744000000    -1.085000000     0.577000000
H    -1.087000000    -2.021000000     1.010000000
C     0.681000000    -1.101000000     0.440000000
H     1.244000000    -1.954000000     0.810000000
C     1.240000000    -0.003000000    -0.153000000
H     2.333000000     0.123000000    -0.308000000
C     0.410000000     1.120000000    -0.489000000
H     0.823000000     2.039000000    -0.897000000
C    -1.030000000     1.063000000    -0.333000000
H    -1.640000000     1.915000000    -0.622000000
C    -1.583000000    -0.029000000     0.227000000
C    -3.095000000    -0.201000000     0.390000000
O    -3.579000000    -1.274000000     0.650000000
O    -3.822000000     0.779000000     0.155000000
O     1.112000000    -4.155000000    -0.514000000
H     1.003000000    -3.720000000     0.331000000
H     1.960000000    -4.595000000    -0.449000000
O    -3.928000000     3.706000000    -3.911000000
H    -4.074000000     2.976000000    -3.310000000
H    -4.597000000     3.596000000    -4.587000000
O    -2.854000000    -1.242000000     3.792000000
H    -3.609000000    -1.263000000     3.203000000
H    -2.687000000    -0.310000000     3.933000000
O     4.669000000    -0.836000000    -4.022000000
H     4.545000000    -0.848000000    -3.073000000
H     4.470000000    -1.730000000    -4.301000000
O     6.605000000     4.191000000     0.314000000
H     6.356000000     3.308000000     0.040000000
H     6.664000000     4.137000000     1.268000000
O    -6.490000000    -4.433000000     0.071000000
H    -6.293000000    -5.287000000    -0.315000000
H    -5.893000000    -4.363000000     0.815000000
O    -1.289000000     4.247000000    -1.887000000
H    -2.051000000     3.737000000    -2.163000000
H    -1.590000000     5.155000000    -1.901000000
O    -2.265000000    -2.487000000    -2.970000000
H    -1.934000000    -1.721000000    -3.440000000
H    -3.029000000    -2.163000000    -2.493000000
O     4.105000000     0.946000000    -5.896000000
H     4.621000000     0.756000000    -5.112000000
H     4.121000000     0.130000000    -6.397000000
O    -5.297000000     4.455000000    -0.507000000
H    -4.861000000     4.295000000     0.330000000
H    -5.301000000     5.408000000    -0.597000000
O    -6.126000000    -0.910000000     1.334000000
H    -6.094000000    -1.836000000     1.572000000
H    -5.256000000    -0.723000000     0.981000000
O     7.258000000    -0.465000000    -0.015000000
H     6.452000000     0.020000000    -0.191000000
H     7.822000000    -0.274000000    -0.764000000
O    -4.378000000     2.532000000     1.909000000
H    -3.543000000     2.995000000     1.978000000
H    -4.175000000     1.745000000     1.404000000
O    -3.932000000    -3.671000000     1.944000000
H    -3.268000000    -4.074000000     1.385000000
H    -3.826000000    -2.730000000     1.801000000
O     1.410000000    -0.534000000    -6.293000000
H     2.313000000    -0.233000000    -6.396000000
H     1.103000000    -0.103000000    -5.496000000
O    -6.835000000     0.091000000    -1.835000000
H    -7.784000000     0.210000000    -1.877000000
H    -6.536000000     0.768000000    -1.227000000
O    -6.958000000     1.557000000     1.318000000
H    -6.687000000     0.641000000     1.374000000
H    -6.142000000     2.042000000     1.199000000
O    -1.764000000     1.323000000    -4.344000000
H    -2.548000000     1.556000000    -3.845000000
H    -2.048000000     1.342000000    -5.258000000
O    -6.058000000    -3.932000000     3.680000000
H    -6.481000000    -4.786000000     3.592000000
H    -5.187000000    -4.056000000     3.303000000
O     0.419000000     4.128000000     0.449000000
H    -0.136000000     4.204000000    -0.327000000
H     1.312000000     4.187000000     0.112000000
O     2.681000000     1.628000000     4.530000000
H     2.623000000     0.916000000     5.168000000
H     2.230000000     1.291000000     3.755000000
O    -1.625000000    -5.008000000    -0.248000000
H    -1.236000000    -5.821000000    -0.572000000
H    -0.918000000    -4.366000000    -0.302000000
O     0.465000000     2.137000000     2.463000000
H     0.831000000     1.731000000     1.677000000
H     0.527000000     3.078000000     2.297000000
O     1.005000000    -3.989000000     2.396000000
H     0.525000000    -3.367000000     2.942000000
H     0.507000000    -4.804000000     2.466000000
O     7.352000000    -2.981000000     1.377000000
H     7.312000000    -2.436000000     2.163000000
H     7.406000000    -2.355000000     0.654000000
O    -5.108000000    -4.167000000    -3.105000000
H    -5.051000000    -3.448000000    -2.476000000
H    -4.364000000    -4.731000000    -2.892000000
O     3.164000000     1.853000000    -2.596000000
H     2.586000000     1.094000000    -2.521000000
H     3.020000000     2.177000000    -3.485000000
O    -1.930000000     1.484000000     4.105000000
H    -1.495000000     1.201000000     4.910000000
H    -1.214000000     1.660000000     3.495000000
O     4.931000000     0.845000000     0.152000000
H     4.904000000     0.140000000     0.799000000
H     4.289000000     1.482000000     0.466000000
O     1.720000000    -0.645000000     3.275000000
H     0.966000000    -0.834000000     3.833000000
H     1.348000000    -0.538000000     2.399000000
O     2.951000000     3.841000000    -0.768000000
H     3.474000000     4.450000000    -1.290000000
H     2.896000000     3.051000000    -1.305000000
O     3.717000000    -3.780000000     2.611000000
H     2.779000000    -3.845000000     2.431000000
H     3.823000000    -4.181000000     3.474000000
O     6.417000000     1.837000000    -2.373000000
H     6.456000000     2.677000000    -2.831000000
H     5.564000000     1.840000000    -1.940000000
O     5.573000000     0.418000000     4.050000000
H     6.135000000     0.527000000     3.283000000
H     5.050000000     1.220000000     4.080000000
O    -3.581000000    -2.789000000     5.771000000
H    -3.373000000    -3.616000000     5.337000000
H    -3.244000000    -2.116000000     5.179000000
O     0.514000000     3.331000000    -4.237000000
H     0.379000000     4.199000000    -3.857000000
H    -0.334000000     2.897000000    -4.150000000
O     0.420000000    -0.230000000    -3.420000000
H     0.369000000    -0.079000000    -2.476000000
H    -0.428000000     0.060000000    -3.755000000
O    -3.916000000     1.188000000    -2.545000000
H    -3.919000000     1.049000000    -1.598000000
H    -4.329000000     0.402000000    -2.904000000
O     5.196000000    -1.893000000    -1.517000000
H     6.067000000    -1.813000000    -1.907000000
H     5.310000000    -1.597000000    -0.614000000
O     4.692000000    -1.276000000     1.861000000
H     4.454000000    -2.172000000     2.101000000
H     4.294000000    -0.732000000     2.540000000
O    -2.130000000     4.904000000     1.899000000
H    -1.729000000     5.198000000     2.717000000
H    -1.391000000     4.642000000     1.350000000
O     3.277000000     2.730000000     1.639000000
H     3.369000000     3.269000000     0.854000000
H     2.848000000     3.303000000     2.275000000
O    -5.860000000     4.076000000     3.795000000
H    -5.242000000     3.844000000     3.102000000
H    -6.291000000     3.251000000     4.019000000
O     3.875000000    -4.416000000    -0.389000000
H     4.472000000    -4.566000000     0.344000000
H     4.177000000    -3.597000000    -0.781000000
O    -0.461000000    -2.495000000     4.294000000
H    -1.264000000    -1.974000000     4.286000000
H    -0.517000000    -3.008000000     5.100000000
O     0.036000000    -4.006000000    -3.098000000
H     0.581000000    -3.954000000    -2.313000000
H    -0.812000000    -3.657000000    -2.824000000
O    -4.747000000    -1.794000000    -1.840000000
H    -5.523000000    -1.262000000    -2.013000000
H    -4.589000000    -1.689000000    -0.902000000
O    -7.525000000     2.808000000    -1.225000000
H    -6.749000000     3.338000000    -1.043000000
H    -8.013000000     2.807000000    -0.401000000
