158
-3048.60550
C     0.338000000    -1.107000000     1.014000000
H     0.695000000    -1.915000000     1.647000000
C     1.224000000    -0.391000000     0.228000000
H     2.259000000    -0.325000000     0.555000000
C     0.856000000     0.610000000    -0.712000000
H     1.648000000     1.159000000    -1.150000000
C    -0.501000000     0.755000000    -0.947000000
H    -0.747000000     1.466000000    -1.732000000
C    -1.448000000     0.122000000    -0.126000000
H    -2.461000000     0.506000000    -0.206000000
C    -1.067000000    -0.848000000     0.823000000
C    -2.143000000    -1.622000000     1.593000000
O    -1.727000000    -2.402000000     2.423000000
O    -3.299000000    -1.375000000     1.329000000
O    -4.694000000     4.602000000    -2.660000000
H    -4.727000000     5.193000000    -3.412000000
H    -4.374000000     3.775000000    -3.019000000
O    -0.250000000    -1.196000000     4.569000000
H    -0.068000000    -0.309000000     4.258000000
H    -0.829000000    -1.569000000     3.905000000
O     2.002000000    -1.532000000    -5.066000000
H     1.594000000    -1.874000000    -4.270000000
H     1.276000000    -1.164000000    -5.569000000
O     4.973000000    -2.111000000     1.693000000
H     4.354000000    -2.029000000     2.419000000
H     4.739000000    -1.399000000     1.097000000
O    -4.726000000     1.572000000     1.108000000
H    -4.394000000     0.770000000     1.510000000
H    -4.975000000     1.311000000     0.221000000
O     1.726000000     5.722000000    -0.366000000
H     2.651000000     5.605000000    -0.148000000
H     1.522000000     6.611000000    -0.075000000
O    -4.912000000    -5.131000000     0.859000000
H    -4.824000000    -5.928000000     0.335000000
H    -5.652000000    -5.306000000     1.439000000
O     2.783000000    -6.136000000    -1.109000000
H     2.605000000    -6.322000000    -2.031000000
H     2.348000000    -5.300000000    -0.945000000
O    -2.759000000    -7.361000000     2.949000000
H    -2.745000000    -6.698000000     2.259000000
H    -2.252000000    -6.974000000     3.663000000
O    -1.859000000    -3.477000000    -2.892000000
H    -2.268000000    -4.237000000    -3.304000000
H    -2.373000000    -3.328000000    -2.099000000
O     4.139000000    -0.674000000    -3.416000000
H     4.294000000    -1.461000000    -2.895000000
H     3.312000000    -0.843000000    -3.867000000
O    -6.127000000     2.958000000     2.901000000
H    -5.418000000     2.711000000     2.307000000
H    -5.707000000     3.028000000     3.758000000
O     1.086000000     6.081000000    -3.303000000
H     1.275000000     6.550000000    -2.491000000
H     1.268000000     5.164000000    -3.099000000
O     0.713000000    -4.707000000     1.093000000
H     1.501000000    -4.848000000     1.618000000
H     0.057000000    -4.405000000     1.721000000
O    -3.930000000    -0.898000000     4.063000000
H    -3.673000000    -1.071000000     3.158000000
H    -3.456000000    -0.101000000     4.299000000
O    -5.874000000    -1.175000000     1.846000000
H    -6.283000000    -1.597000000     1.091000000
H    -4.941000000    -1.365000000     1.751000000
O    -3.590000000    -2.988000000    -0.839000000
H    -3.421000000    -2.416000000    -0.090000000
H    -4.399000000    -3.447000000    -0.612000000
O    -0.149000000    -5.074000000     4.236000000
H     0.429000000    -5.117000000     4.998000000
H    -0.898000000    -4.556000000     4.531000000
O    -1.607000000     3.877000000    -1.453000000
H    -2.207000000     3.882000000    -0.707000000
H    -2.040000000     4.421000000    -2.111000000
O     1.717000000    -3.426000000    -1.245000000
H     1.164000000    -3.571000000    -0.477000000
H     1.236000000    -2.786000000    -1.769000000
O    -2.910000000    -0.499000000    -2.551000000
H    -3.780000000    -0.100000000    -2.536000000
H    -3.053000000    -1.397000000    -2.251000000
O    -3.327000000     2.660000000    -3.998000000
H    -3.783000000     1.861000000    -3.733000000
H    -2.654000000     2.361000000    -4.609000000
O    -1.731000000    -5.753000000     0.558000000
H    -2.265000000    -4.966000000     0.666000000
H    -0.883000000    -5.427000000     0.259000000
O     0.128000000     2.714000000     1.578000000
H     0.075000000     1.977000000     0.969000000
H    -0.087000000     3.480000000     1.045000000
O    -6.936000000     0.515000000     3.917000000
H    -6.921000000     1.418000000     3.598000000
H    -6.393000000     0.032000000     3.295000000
O     2.598000000     2.184000000     2.637000000
H     3.113000000     2.229000000     1.832000000
H     1.715000000     2.442000000     2.372000000
O     2.499000000    -4.746000000     3.566000000
H     2.798000000    -4.010000000     4.101000000
H     1.545000000    -4.664000000     3.558000000
O     4.621000000    -2.946000000    -1.883000000
H     3.752000000    -3.166000000    -1.548000000
H     5.227000000    -3.377000000    -1.280000000
O    -1.892000000     1.040000000     3.526000000
H    -2.111000000     1.951000000     3.724000000
H    -1.578000000     1.062000000     2.622000000
O     6.230000000     1.829000000    -1.861000000
H     6.878000000     2.305000000    -1.342000000
H     5.581000000     2.490000000    -2.099000000
O     5.215000000    -0.395000000    -0.349000000
H     4.653000000    -0.769000000    -1.028000000
H     5.787000000     0.212000000    -0.818000000
O     4.448000000     2.379000000     0.825000000
H     4.523000000     1.605000000     0.266000000
H     5.172000000     2.297000000     1.446000000
O     1.103000000     3.624000000    -2.116000000
H     1.195000000     4.150000000    -1.321000000
H     0.256000000     3.189000000    -2.017000000
O    -4.625000000    -6.191000000     4.710000000
H    -4.328000000    -6.938000000     4.189000000
H    -4.020000000    -5.485000000     4.483000000
O    -2.932000000    -4.091000000     4.181000000
H    -2.475000000    -3.571000000     3.520000000
H    -3.064000000    -3.486000000     4.912000000
O    -0.703000000     2.581000000    -5.024000000
H    -0.431000000     2.579000000    -5.942000000
H    -0.571000000     1.678000000    -4.734000000
O     0.319000000    -1.390000000    -2.907000000
H     0.065000000    -0.631000000    -2.382000000
H    -0.492000000    -1.886000000    -3.019000000
O    -2.902000000    -0.362000000    -5.446000000
H    -2.830000000    -0.615000000    -4.526000000
H    -3.837000000    -0.205000000    -5.578000000
O    -6.078000000    -2.669000000     4.595000000
H    -6.699000000    -2.427000000     3.908000000
H    -5.279000000    -2.189000000     4.375000000
O     4.357000000     5.252000000     0.387000000
H     5.229000000     5.416000000     0.028000000
H     4.423000000     4.388000000     0.792000000
O     1.657000000    -2.504000000     6.138000000
H     1.169000000    -3.106000000     6.700000000
H     1.001000000    -1.879000000     5.830000000
O     3.753000000     1.224000000     5.056000000
H     3.221000000     1.454000000     4.295000000
H     4.545000000     1.755000000     4.963000000
O     5.857000000     3.483000000    -5.052000000
H     5.550000000     3.072000000    -4.244000000
H     6.054000000     2.749000000    -5.634000000
O     3.820000000     2.952000000    -2.936000000
H     2.979000000     3.322000000    -2.667000000
H     3.598000000     2.095000000    -3.300000000
O     3.169000000    -1.771000000     3.897000000
H     3.896000000    -1.243000000     4.226000000
H     2.680000000    -2.020000000     4.681000000
O    -2.705000000     4.556000000     0.799000000
H    -2.202000000     5.355000000     0.959000000
H    -2.719000000     4.110000000     1.646000000
O    -1.333000000     5.649000000    -4.685000000
H    -0.662000000     6.001000000    -4.101000000
H    -1.239000000     4.699000000    -4.613000000
O    -5.229000000     0.595000000    -3.213000000
H    -5.989000000     0.910000000    -2.725000000
H    -5.598000000     0.205000000    -4.006000000
