158
-3023.00536
C    -0.772000000    -1.172000000    -0.436000000
H    -1.255000000    -2.136000000    -0.582000000
C     0.626000000    -1.136000000    -0.431000000
H     1.176000000    -2.067000000    -0.541000000
C     1.220000000     0.053000000    -0.110000000
H     2.335000000     0.051000000    -0.170000000
C     0.546000000     1.247000000     0.203000000
H     1.039000000     2.206000000     0.338000000
C    -0.849000000     1.126000000     0.283000000
H    -1.482000000     1.938000000     0.630000000
C    -1.575000000    -0.032000000    -0.087000000
C    -3.091000000    -0.175000000    -0.016000000
O    -3.596000000    -1.111000000    -0.601000000
O    -3.768000000     0.683000000     0.443000000
O    -1.089000000    -5.008000000    -3.037000000
H    -1.711000000    -4.930000000    -3.760000000
H    -0.235000000    -4.842000000    -3.436000000
O    -3.471000000     4.033000000    -3.813000000
H    -3.734000000     3.560000000    -3.024000000
H    -3.221000000     4.902000000    -3.500000000
O    -3.776000000    -3.162000000     0.911000000
H    -3.781000000    -2.333000000     0.432000000
H    -3.364000000    -3.783000000     0.311000000
O     4.320000000    -2.961000000    -4.353000000
H     5.257000000    -2.806000000    -4.230000000
H     3.929000000    -2.755000000    -3.504000000
O     3.219000000     4.744000000     0.736000000
H     2.326000000     5.050000000     0.892000000
H     3.573000000     4.582000000     1.610000000
O     1.428000000    -3.986000000    -3.433000000
H     2.150000000    -3.991000000    -2.804000000
H     1.173000000    -3.066000000    -3.497000000
O    -6.668000000    -2.230000000     2.144000000
H    -6.957000000    -1.705000000     1.398000000
H    -5.892000000    -2.691000000     1.826000000
O     5.808000000    -2.810000000    -0.549000000
H     5.855000000    -1.856000000    -0.610000000
H     6.205000000    -3.016000000     0.298000000
O     0.962000000    -0.693000000    -3.326000000
H     1.917000000    -0.627000000    -3.293000000
H     0.692000000    -0.717000000    -2.408000000
O     2.703000000    -3.489000000     1.802000000
H     2.054000000    -3.325000000     1.118000000
H     2.999000000    -4.385000000     1.643000000
O    -5.624000000     1.993000000     1.478000000
H    -6.364000000     1.481000000     1.152000000
H    -4.867000000     1.649000000     1.004000000
O     4.999000000     2.794000000    -2.738000000
H     5.921000000     2.618000000    -2.550000000
H     4.920000000     2.676000000    -3.684000000
O    -1.759000000     5.979000000     1.048000000
H    -0.868000000     5.727000000     1.290000000
H    -1.656000000     6.813000000     0.590000000
O    -4.774000000     4.183000000    -0.258000000
H    -5.099000000     3.501000000     0.330000000
H    -4.117000000     3.742000000    -0.796000000
O    -6.395000000    -3.473000000    -0.725000000
H    -6.437000000    -2.524000000    -0.847000000
H    -6.298000000    -3.824000000    -1.611000000
O    -3.593000000     6.512000000    -1.562000000
H    -3.770000000     5.807000000    -0.939000000
H    -4.320000000     7.123000000    -1.445000000
O    -0.875000000    -2.087000000    -4.791000000
H    -1.525000000    -1.403000000    -4.951000000
H    -0.254000000    -1.689000000    -4.181000000
O    -6.680000000     1.358000000    -2.390000000
H    -6.053000000     1.857000000    -2.913000000
H    -7.280000000     2.017000000    -2.042000000
O     4.044000000     1.465000000    -4.871000000
H     3.134000000     1.753000000    -4.800000000
H     4.253000000     1.558000000    -5.800000000
O    -6.235000000     4.131000000     3.082000000
H    -5.527000000     4.650000000     2.699000000
H    -5.867000000     3.251000000     3.168000000
O     0.603000000    -1.832000000     4.369000000
H    -0.331000000    -1.775000000     4.166000000
H     1.036000000    -1.419000000     3.623000000
O    -0.747000000     2.008000000     4.852000000
H    -0.482000000     1.493000000     5.614000000
H    -1.186000000     1.380000000     4.279000000
O    -2.840000000    -4.722000000    -1.100000000
H    -2.993000000    -5.667000000    -1.117000000
H    -2.321000000    -4.549000000    -1.885000000
O     1.029000000     6.518000000     1.919000000
H     0.721000000     7.412000000     2.066000000
H     0.646000000     6.012000000     2.636000000
O    -2.559000000     0.605000000     3.268000000
H    -2.947000000     0.840000000     2.426000000
H    -3.148000000     0.986000000     3.919000000
O    -0.877000000    -4.530000000     1.906000000
H    -1.103000000    -3.603000000     1.982000000
H    -0.300000000    -4.575000000     1.143000000
O     4.288000000     5.398000000    -1.763000000
H     3.955000000     5.440000000    -0.867000000
H     4.482000000     4.471000000    -1.903000000
O     7.142000000    -2.517000000     1.764000000
H     7.807000000    -2.118000000     1.204000000
H     7.577000000    -2.628000000     2.610000000
O    -7.367000000    -1.172000000    -3.335000000
H    -6.575000000    -1.649000000    -3.088000000
H    -7.198000000    -0.270000000    -3.064000000
O     4.816000000     2.215000000    -0.100000000
H     4.940000000     2.211000000    -1.049000000
H     4.305000000     3.005000000     0.072000000
O    -0.755000000     1.808000000    -3.082000000
H    -0.120000000     1.192000000    -3.446000000
H    -0.563000000     1.823000000    -2.144000000
O     1.803000000     2.676000000     3.431000000
H     2.108000000     1.779000000     3.293000000
H     1.245000000     2.622000000     4.207000000
O    -0.335000000     4.596000000     3.215000000
H     0.281000000     3.982000000     2.815000000
H    -0.618000000     4.162000000     4.019000000
O     4.418000000    -2.165000000     3.518000000
H     3.778000000    -2.816000000     3.230000000
H     4.959000000    -2.003000000     2.745000000
O     2.823000000     0.210000000     3.867000000
H     3.189000000    -0.645000000     3.643000000
H     3.234000000     0.435000000     4.703000000
O    -4.983000000     1.155000000     4.951000000
H    -4.596000000     1.305000000     5.814000000
H    -5.065000000     0.204000000     4.887000000
O     3.227000000    -2.659000000    -1.774000000
H     3.567000000    -1.775000000    -1.914000000
H     3.864000000    -3.071000000    -1.191000000
O     2.966000000    -6.311000000    -1.264000000
H     3.405000000    -6.499000000    -0.434000000
H     3.341000000    -6.941000000    -1.880000000
O    -2.436000000     0.489000000    -5.060000000
H    -1.929000000     1.129000000    -4.560000000
H    -3.338000000     0.803000000    -5.006000000
O    -3.718000000     2.215000000    -1.899000000
H    -3.621000000     1.754000000    -1.066000000
H    -3.683000000     1.524000000    -2.561000000
O     4.136000000    -0.294000000    -2.332000000
H     4.395000000     0.297000000    -3.038000000
H     4.798000000    -0.160000000    -1.653000000
O     6.531000000    -0.111000000    -0.378000000
H     6.255000000     0.461000000     0.339000000
H     7.377000000    -0.459000000    -0.095000000
O    -3.721000000     6.026000000     3.124000000
H    -3.346000000     6.543000000     3.836000000
H    -3.047000000     6.031000000     2.444000000
O     3.914000000     4.746000000     3.544000000
H     3.725000000     3.810000000     3.474000000
H     3.647000000     4.979000000     4.433000000
O     0.690000000    -4.626000000    -0.330000000
H     1.422000000    -5.210000000    -0.530000000
H     0.172000000    -4.608000000    -1.135000000
O    -1.785000000    -2.031000000     3.076000000
H    -2.475000000    -2.251000000     2.450000000
H    -1.965000000    -1.124000000     3.322000000
O    -4.593000000    -1.583000000    -3.400000000
H    -4.269000000    -1.420000000    -2.514000000
H    -3.879000000    -2.052000000    -3.833000000
O    -6.220000000    -0.617000000    -0.580000000
H    -6.255000000     0.009000000    -1.304000000
H    -5.288000000    -0.691000000    -0.373000000
