158
-3032.22558
C    -0.388000000    -1.437000000    -0.003000000
H    -0.608000000    -2.499000000     0.068000000
C     0.906000000    -0.952000000     0.117000000
H     1.799000000    -1.564000000     0.208000000
C     1.142000000     0.410000000     0.278000000
H     2.113000000     0.856000000     0.499000000
C     0.093000000     1.244000000     0.005000000
H     0.230000000     2.321000000     0.055000000
C    -1.165000000     0.749000000    -0.249000000
H    -1.897000000     1.519000000    -0.480000000
C    -1.488000000    -0.636000000    -0.244000000
C    -2.880000000    -1.080000000    -0.411000000
O    -3.108000000    -2.203000000     0.057000000
O    -3.780000000    -0.454000000    -0.928000000
O    -2.299000000    -4.607000000    -0.156000000
H    -1.740000000    -4.663000000    -0.930000000
H    -2.578000000    -3.692000000    -0.127000000
O     5.730000000    -2.441000000    -0.998000000
H     5.270000000    -1.618000000    -1.164000000
H     6.347000000    -2.521000000    -1.726000000
O    -6.982000000    -1.527000000     1.442000000
H    -6.526000000    -0.957000000     2.062000000
H    -7.003000000    -1.026000000     0.627000000
O     3.507000000     0.447000000    -5.343000000
H     2.716000000     0.959000000    -5.507000000
H     3.845000000     0.785000000    -4.514000000
O     6.301000000     2.170000000    -3.174000000
H     6.785000000     2.994000000    -3.114000000
H     5.481000000     2.340000000    -2.710000000
O     2.445000000    -2.137000000    -3.133000000
H     3.296000000    -1.726000000    -2.981000000
H     1.814000000    -1.424000000    -3.031000000
O     0.136000000     5.562000000    -0.823000000
H     0.747000000     5.943000000    -0.192000000
H     0.179000000     6.146000000    -1.581000000
O     0.471000000    -0.019000000    -3.026000000
H     0.568000000     0.237000000    -2.109000000
H    -0.213000000     0.559000000    -3.365000000
O     5.744000000     0.213000000     0.637000000
H     6.520000000     0.489000000     0.149000000
H     6.011000000    -0.597000000     1.072000000
O    -5.280000000     3.177000000    -1.095000000
H    -6.012000000     3.517000000    -1.610000000
H    -4.712000000     2.753000000    -1.738000000
O     6.021000000     3.214000000     4.473000000
H     6.539000000     3.107000000     3.675000000
H     5.342000000     2.543000000     4.409000000
O     4.897000000     5.683000000    -2.373000000
H     4.546000000     5.758000000    -3.260000000
H     4.172000000     5.332000000    -1.857000000
O    -6.239000000    -3.796000000    -2.219000000
H    -6.100000000    -3.981000000    -1.290000000
H    -5.517000000    -4.242000000    -2.662000000
O    -1.871000000     5.841000000     1.348000000
H    -2.795000000     5.614000000     1.242000000
H    -1.541000000     5.927000000     0.454000000
O     3.438000000     2.428000000    -2.685000000
H     3.426000000     3.032000000    -1.943000000
H     3.075000000     2.934000000    -3.412000000
O    -4.921000000     4.933000000     1.121000000
H    -4.972000000     4.215000000     0.491000000
H    -5.367000000     5.662000000     0.689000000
O    -8.094000000     1.418000000    -0.818000000
H    -7.532000000     0.676000000    -1.042000000
H    -8.082000000     1.447000000     0.139000000
O    -1.168000000    -1.488000000    -4.826000000
H    -1.899000000    -1.763000000    -4.273000000
H    -0.506000000    -1.173000000    -4.210000000
O    -0.407000000    -5.512000000     3.423000000
H    -1.321000000    -5.491000000     3.143000000
H    -0.288000000    -6.388000000     3.790000000
O    -0.633000000     0.112000000     2.750000000
H    -0.196000000     0.237000000     1.908000000
H    -1.556000000    -0.004000000     2.526000000
O     2.056000000    -0.178000000     6.126000000
H     1.864000000     0.723000000     5.865000000
H     1.239000000    -0.652000000     5.967000000
O    -0.178000000     2.000000000     4.536000000
H     0.706000000     2.195000000     4.224000000
H    -0.503000000     1.332000000     3.932000000
O    -3.089000000    -5.952000000     2.924000000
H    -3.897000000    -5.573000000     3.270000000
H    -3.123000000    -5.772000000     1.985000000
O    -3.241000000     0.044000000     2.695000000
H    -3.657000000     0.221000000     3.539000000
H    -3.905000000     0.280000000     2.047000000
O    -0.167000000    -1.442000000     5.390000000
H    -0.694000000    -2.240000000     5.425000000
H    -0.240000000    -1.147000000     4.482000000
O    -6.306000000    -0.694000000    -1.612000000
H    -5.404000000    -0.704000000    -1.290000000
H    -6.395000000    -1.511000000    -2.102000000
O     0.940000000    -6.306000000     0.084000000
H     0.467000000    -5.669000000     0.620000000
H     0.578000000    -6.195000000    -0.795000000
O    -5.508000000    -5.336000000     2.345000000
H    -5.287000000    -4.987000000     1.481000000
H    -6.006000000    -6.132000000     2.161000000
O    -1.306000000     1.912000000    -3.847000000
H    -2.236000000     1.737000000    -3.701000000
H    -1.152000000     2.756000000    -3.422000000
O     7.928000000     2.547000000     2.504000000
H     8.397000000     3.174000000     1.953000000
H     7.422000000     2.018000000     1.887000000
O     5.368000000     0.558000000     6.104000000
H     5.622000000    -0.327000000     5.844000000
H     5.002000000     0.945000000     5.308000000
O    -0.130000000     4.126000000    -3.344000000
H     0.698000000     3.796000000    -3.693000000
H     0.052000000     4.298000000    -2.420000000
O     3.839000000     5.094000000     2.645000000
H     3.035000000     5.534000000     2.367000000
H     3.967000000     5.378000000     3.550000000
O    -0.554000000    -4.590000000    -2.520000000
H     0.351000000    -4.635000000    -2.827000000
H    -1.075000000    -4.515000000    -3.320000000
O     4.287000000    -0.162000000    -2.041000000
H     5.100000000     0.301000000    -2.242000000
H     3.737000000     0.495000000    -1.613000000
O     4.473000000    -3.349000000     1.720000000
H     4.419000000    -3.411000000     0.767000000
H     5.134000000    -2.675000000     1.879000000
O    -3.846000000     1.333000000    -2.871000000
H    -4.414000000     1.085000000    -3.601000000
H    -4.028000000     0.681000000    -2.194000000
O     2.396000000     2.801000000     3.612000000
H     2.971000000     2.038000000     3.545000000
H     2.858000000     3.491000000     3.135000000
O     3.233000000     4.584000000    -0.446000000
H     2.463000000     5.152000000    -0.473000000
H     3.377000000     4.420000000     0.485000000
O    -0.120000000     4.909000000     3.829000000
H    -0.260000000     3.962000000     3.803000000
H    -0.573000000     5.240000000     3.054000000
O    -3.061000000    -2.185000000    -3.246000000
H    -3.346000000    -3.074000000    -3.455000000
H    -3.046000000    -2.157000000    -2.290000000
O     2.377000000    -4.890000000    -2.811000000
H     3.191000000    -5.261000000    -3.152000000
H     2.509000000    -3.943000000    -2.851000000
O     3.152000000    -1.253000000     2.770000000
H     2.248000000    -1.460000000     3.007000000
H     3.484000000    -2.056000000     2.368000000
O     4.569000000     0.945000000     3.327000000
H     5.003000000     0.809000000     2.484000000
H     4.219000000     0.084000000     3.557000000
O    -2.551000000    -2.601000000     3.003000000
H    -2.307000000    -2.893000000     2.125000000
H    -2.739000000    -1.668000000     2.901000000
O    -5.314000000    -3.427000000     0.361000000
H    -4.418000000    -3.104000000     0.259000000
H    -5.797000000    -2.683000000     0.720000000
O    -5.248000000     1.133000000     0.848000000
H    -5.453000000     1.886000000     0.293000000
H    -4.783000000     0.528000000     0.269000000
O     1.340000000    -3.569000000     2.474000000
H     2.036000000    -4.004000000     1.982000000
H     0.814000000    -4.286000000     2.829000000
