158
-3026.56033
C    -1.143000000    -0.232000000    -0.835000000
H    -1.869000000    -0.441000000    -1.617000000
C     0.133000000    -0.203000000    -1.242000000
H     0.348000000    -0.531000000    -2.256000000
C     1.163000000     0.106000000    -0.420000000
H     2.140000000     0.322000000    -0.744000000
C     0.857000000     0.297000000     0.921000000
H     1.723000000     0.511000000     1.541000000
C    -0.423000000     0.233000000     1.404000000
H    -0.629000000     0.559000000     2.421000000
C    -1.458000000    -0.081000000     0.540000000
C    -2.930000000     0.034000000     0.944000000
O    -3.794000000    -0.276000000     0.107000000
O    -3.239000000     0.440000000     2.071000000
O    -4.552000000    -2.808000000    -0.414000000
H    -3.868000000    -2.917000000    -1.075000000
H    -4.668000000    -1.861000000    -0.342000000
O    -0.931000000    -0.473000000    -4.500000000
H    -1.058000000     0.438000000    -4.767000000
H    -1.503000000    -0.974000000    -5.082000000
O    -5.387000000    -1.622000000     5.852000000
H    -5.164000000    -0.835000000     5.356000000
H    -4.556000000    -1.910000000     6.230000000
O     6.362000000     0.450000000    -2.796000000
H     5.881000000     1.237000000    -2.539000000
H     5.685000000    -0.160000000    -3.088000000
O    -7.266000000    -3.624000000    -1.346000000
H    -8.065000000    -3.121000000    -1.190000000
H    -6.584000000    -3.140000000    -0.879000000
O     2.386000000     3.096000000    -1.089000000
H     2.358000000     2.803000000    -2.000000000
H     1.573000000     3.587000000    -0.971000000
O     4.614000000     2.393000000    -5.450000000
H     5.057000000     3.050000000    -4.912000000
H     3.834000000     2.158000000    -4.947000000
O     1.637000000    -1.841000000    -4.422000000
H     1.928000000    -1.655000000    -5.315000000
H     0.835000000    -1.328000000    -4.320000000
O    -1.177000000     3.679000000     0.572000000
H    -1.795000000     3.283000000     1.186000000
H    -1.400000000     3.294000000    -0.275000000
O     4.947000000     3.623000000     1.584000000
H     5.755000000     4.126000000     1.688000000
H     4.985000000     2.963000000     2.277000000
O    -6.543000000     3.064000000    -0.747000000
H    -6.944000000     2.199000000    -0.665000000
H    -5.779000000     2.922000000    -1.306000000
O     3.008000000    -2.340000000     3.486000000
H     3.625000000    -2.176000000     4.199000000
H     2.217000000    -1.863000000     3.740000000
O    -1.944000000     2.040000000    -5.203000000
H    -1.773000000     2.474000000    -6.039000000
H    -2.074000000     2.758000000    -4.583000000
O     1.608000000    -4.355000000    -3.519000000
H     2.512000000    -4.436000000    -3.213000000
H     1.564000000    -3.482000000    -3.908000000
O     5.061000000     2.589000000    -1.776000000
H     4.288000000     2.748000000    -1.235000000
H     5.171000000     3.395000000    -2.280000000
O    -3.532000000     5.144000000     3.186000000
H    -2.987000000     4.663000000     2.562000000
H    -3.219000000     6.047000000     3.131000000
O    -7.697000000     0.290000000     3.591000000
H    -6.785000000     0.199000000     3.866000000
H    -7.648000000     0.689000000     2.723000000
O    -6.863000000    -2.321000000     1.650000000
H    -7.017000000    -1.378000000     1.720000000
H    -7.441000000    -2.707000000     2.308000000
O    -2.084000000    -0.456000000     4.403000000
H    -2.218000000    -0.434000000     3.455000000
H    -2.300000000     0.429000000     4.696000000
O    -0.339000000    -3.240000000     1.028000000
H    -0.290000000    -2.341000000     1.353000000
H    -1.211000000    -3.540000000     1.285000000
O    -4.432000000     1.780000000    -2.047000000
H    -4.223000000     1.125000000    -1.381000000
H    -4.152000000     1.383000000    -2.871000000
O    -5.038000000     0.427000000     3.925000000
H    -4.391000000     0.245000000     3.244000000
H    -4.723000000     1.226000000     4.348000000
O    -6.892000000     1.367000000    -3.664000000
H    -6.103000000     1.228000000    -3.140000000
H    -6.940000000     0.599000000    -4.233000000
O    -4.345000000    -3.597000000     4.201000000
H    -4.848000000    -2.825000000     4.461000000
H    -4.536000000    -3.704000000     3.269000000
O    -1.090000000     2.983000000    -2.014000000
H    -0.780000000     2.104000000    -2.232000000
H    -0.748000000     3.538000000    -2.715000000
O     1.601000000    -5.178000000     1.933000000
H     1.110000000    -4.410000000     1.640000000
H     2.506000000    -4.873000000     1.996000000
O    -2.878000000    -3.886000000     1.454000000
H    -2.888000000    -4.615000000     0.834000000
H    -3.563000000    -3.296000000     1.141000000
O     0.159000000    -0.344000000     7.253000000
H    -0.333000000    -0.254000000     8.069000000
H    -0.104000000     0.414000000     6.731000000
O     4.458000000    -1.321000000    -4.099000000
H     4.865000000    -1.997000000    -4.640000000
H     3.565000000    -1.634000000    -3.956000000
O     1.372000000     3.282000000     1.796000000
H     0.498000000     3.569000000     1.533000000
H     1.764000000     2.940000000     0.993000000
O    -3.906000000     2.736000000     4.656000000
H    -3.719000000     2.873000000     5.585000000
H    -3.963000000     3.619000000     4.290000000
O    -0.885000000    -4.408000000    -1.754000000
H     0.015000000    -4.404000000    -2.079000000
H    -0.840000000    -3.942000000    -0.918000000
O     7.292000000     2.854000000    -0.169000000
H     7.867000000     3.105000000    -0.892000000
H     6.414000000     2.857000000    -0.550000000
O    -2.951000000    -3.039000000    -2.870000000
H    -2.894000000    -2.682000000    -3.756000000
H    -2.112000000    -3.479000000    -2.734000000
O     4.938000000     0.274000000     1.152000000
H     4.730000000     1.207000000     1.097000000
H     4.201000000    -0.161000000     0.723000000
O     0.599000000    -1.063000000     4.339000000
H     0.295000000    -0.155000000     4.328000000
H    -0.190000000    -1.577000000     4.507000000
O    -0.392000000     2.343000000     5.431000000
H     0.457000000     2.603000000     5.075000000
H    -0.752000000     3.148000000     5.804000000
O     3.072000000     2.134000000     3.583000000
H     2.419000000     2.306000000     2.905000000
H     2.783000000     2.655000000     4.332000000
O    -2.730000000    -1.751000000     6.638000000
H    -2.251000000    -2.555000000     6.838000000
H    -2.243000000    -1.356000000     5.914000000
O     2.625000000     1.453000000    -3.672000000
H     2.618000000     0.604000000    -3.230000000
H     1.957000000     1.375000000    -4.352000000
O    -4.510000000     0.532000000    -4.664000000
H    -4.980000000     0.073000000    -5.360000000
H    -3.590000000     0.483000000    -4.924000000
O     3.851000000    -4.508000000    -0.986000000
H     3.963000000    -4.874000000    -0.109000000
H     4.687000000    -4.671000000    -1.422000000
O     4.751000000     0.193000000     3.969000000
H     4.825000000     0.092000000     3.020000000
H     3.948000000     0.698000000     4.095000000
O     7.304000000    -0.377000000     0.006000000
H     6.981000000    -0.057000000    -0.837000000
H     6.594000000    -0.191000000     0.620000000
O    -6.699000000     0.365000000     0.700000000
H    -5.756000000     0.235000000     0.801000000
H    -6.886000000     0.073000000    -0.193000000
O    -3.858000000     2.955000000     1.354000000
H    -4.626000000     2.445000000     1.097000000
H    -3.325000000     2.345000000     1.864000000
O     4.348000000    -4.097000000     2.146000000
H     4.672000000    -3.409000000     1.564000000
H     3.934000000    -3.624000000     2.868000000
O     3.548000000    -1.796000000     0.070000000
H     4.061000000    -2.388000000    -0.480000000
H     2.660000000    -2.151000000     0.040000000
