158
-3011.51338
C    -0.629000000    -1.123000000    -0.743000000
H    -0.887000000    -1.931000000    -1.422000000
C     0.683000000    -0.608000000    -0.905000000
H     1.286000000    -1.071000000    -1.682000000
C     1.223000000     0.360000000    -0.059000000
H     2.301000000     0.567000000    -0.146000000
C     0.300000000     1.013000000     0.783000000
H     0.502000000     1.836000000     1.463000000
C    -1.048000000     0.613000000     0.867000000
H    -1.713000000     1.261000000     1.432000000
C    -1.498000000    -0.531000000     0.168000000
C    -2.957000000    -1.103000000     0.331000000
O    -3.434000000    -1.978000000    -0.335000000
O    -3.606000000    -0.541000000     1.225000000
O    -3.092000000    -4.616000000    -0.972000000
H    -2.173000000    -4.348000000    -0.964000000
H    -3.571000000    -3.836000000    -0.689000000
O     2.542000000     4.513000000    -3.244000000
H     2.441000000     5.359000000    -2.809000000
H     1.758000000     4.427000000    -3.786000000
O    -0.988000000    -0.395000000    -6.239000000
H    -0.903000000     0.001000000    -5.372000000
H    -1.625000000    -1.099000000    -6.119000000
O     4.980000000    -1.893000000    -1.409000000
H     5.492000000    -1.413000000    -2.060000000
H     4.412000000    -2.465000000    -1.925000000
O    -8.536000000    -2.157000000     0.252000000
H    -8.826000000    -2.966000000     0.674000000
H    -7.716000000    -1.937000000     0.693000000
O     2.754000000     0.988000000    -5.413000000
H     2.340000000     1.807000000    -5.686000000
H     2.587000000     0.938000000    -4.471000000
O     5.301000000     1.474000000    -4.721000000
H     4.383000000     1.532000000    -4.987000000
H     5.556000000     2.379000000    -4.541000000
O     1.798000000    -2.501000000    -5.556000000
H     2.427000000    -1.784000000    -5.635000000
H     0.951000000    -2.100000000    -5.747000000
O    -3.050000000    -2.839000000    -5.183000000
H    -3.410000000    -3.706000000    -5.371000000
H    -3.710000000    -2.229000000    -5.513000000
O     2.346000000     1.700000000    -2.668000000
H     2.318000000     2.489000000    -3.209000000
H     1.454000000     1.608000000    -2.333000000
O     7.589000000     2.227000000     0.107000000
H     7.240000000     2.283000000    -0.783000000
H     7.606000000     1.289000000     0.299000000
O     4.686000000     3.971000000     3.459000000
H     5.293000000     3.375000000     3.897000000
H     5.147000000     4.243000000     2.666000000
O     4.296000000     6.300000000    -0.109000000
H     4.865000000     5.802000000     0.478000000
H     4.869000000     6.571000000    -0.825000000
O    -4.959000000    -5.878000000    -2.717000000
H    -5.744000000    -5.494000000    -2.327000000
H    -4.236000000    -5.522000000    -2.201000000
O    -0.938000000     4.109000000     4.380000000
H    -1.159000000     3.179000000     4.429000000
H    -0.396000000     4.186000000     3.595000000
O     4.778000000     1.968000000    -1.085000000
H     4.529000000     2.247000000    -0.204000000
H     3.950000000     1.730000000    -1.504000000
O    -2.888000000     4.044000000     0.159000000
H    -2.362000000     4.836000000     0.272000000
H    -3.397000000     4.206000000    -0.635000000
O    -8.290000000     0.421000000    -0.506000000
H    -8.613000000    -0.458000000    -0.308000000
H    -7.468000000     0.275000000    -0.974000000
O    -0.868000000     0.414000000    -3.729000000
H    -0.491000000     1.148000000    -3.244000000
H    -1.774000000     0.366000000    -3.424000000
O    -0.894000000    -5.116000000    -4.098000000
H    -0.447000000    -4.886000000    -3.283000000
H    -1.329000000    -4.307000000    -4.369000000
O     5.570000000     3.924000000    -3.207000000
H     4.642000000     4.160000000    -3.196000000
H     5.783000000     3.747000000    -2.291000000
O    -4.437000000     1.738000000     3.719000000
H    -4.737000000     1.971000000     2.840000000
H    -3.482000000     1.771000000     3.663000000
O     3.559000000    -0.544000000     5.424000000
H     2.965000000    -1.001000000     4.828000000
H     4.432000000    -0.835000000     5.160000000
O    -2.930000000    -3.558000000     4.011000000
H    -1.977000000    -3.596000000     4.087000000
H    -3.109000000    -2.687000000     3.657000000
O    -2.542000000    -0.786000000     3.572000000
H    -2.844000000    -0.647000000     2.675000000
H    -3.113000000    -0.233000000     4.106000000
O     6.136000000    -2.135000000     3.267000000
H     5.635000000    -1.789000000     2.528000000
H     5.524000000    -2.716000000     3.720000000
O    -5.811000000    -0.198000000    -1.469000000
H    -5.310000000    -0.736000000    -0.856000000
H    -5.262000000    -0.151000000    -2.251000000
O    -6.833000000    -0.180000000     2.485000000
H    -6.374000000     0.530000000     2.035000000
H    -6.632000000    -0.046000000     3.412000000
O    -0.084000000     2.591000000    -1.797000000
H    -0.166000000     2.149000000    -0.952000000
H    -0.338000000     3.497000000    -1.618000000
O     4.033000000    -3.590000000    -3.972000000
H     4.888000000    -3.579000000    -4.403000000
H     3.434000000    -3.219000000    -4.619000000
O     0.777000000     4.792000000     2.430000000
H     0.901000000     5.475000000     1.771000000
H     1.257000000     5.108000000     3.196000000
O     0.118000000    -5.057000000    -1.442000000
H     0.953000000    -4.915000000    -1.888000000
H     0.306000000    -5.733000000    -0.791000000
O     6.396000000    -0.015000000    -2.796000000
H     6.053000000     0.395000000    -2.003000000
H     6.073000000     0.535000000    -3.510000000
O    -3.559000000    -6.846000000     0.911000000
H    -3.648000000    -5.930000000     0.647000000
H    -2.771000000    -7.149000000     0.461000000
O     4.021000000    -1.945000000     1.257000000
H     4.236000000    -1.817000000     0.333000000
H     3.139000000    -2.315000000     1.249000000
O    -0.378000000    -2.172000000     2.958000000
H     0.227000000    -1.631000000     2.450000000
H    -1.123000000    -1.597000000     3.133000000
O    -1.719000000     1.657000000     5.208000000
H    -0.806000000     1.376000000     5.256000000
H    -1.980000000     1.780000000     6.121000000
O     3.297000000     2.962000000     1.221000000
H     3.480000000     3.123000000     2.147000000
H     2.609000000     3.590000000     1.001000000
O     6.894000000    -0.454000000     0.396000000
H     7.642000000    -1.041000000     0.505000000
H     6.202000000    -1.012000000     0.040000000
O    -3.544000000    -0.788000000    -3.049000000
H    -3.130000000    -1.028000000    -2.220000000
H    -3.235000000    -1.446000000    -3.671000000
O    -4.643000000     5.516000000     1.782000000
H    -4.197000000     4.974000000     1.130000000
H    -3.935000000     5.908000000     2.292000000
O     2.649000000    -4.873000000    -2.101000000
H     3.300000000    -5.293000000    -1.540000000
H     3.162000000    -4.322000000    -2.692000000
O     2.203000000    -0.330000000     2.958000000
H     2.911000000    -0.828000000     2.549000000
H     2.135000000     0.466000000     2.431000000
O     0.850000000     0.583000000     5.575000000
H     1.343000000     0.746000000     4.771000000
H     1.520000000     0.413000000     6.237000000
O    -6.993000000    -4.496000000     2.210000000
H    -7.902000000    -4.198000000     2.177000000
H    -6.499000000    -3.808000000     1.763000000
O    -5.731000000    -2.649000000     0.955000000
H    -4.905000000    -2.430000000     0.523000000
H    -5.929000000    -1.883000000     1.494000000
O    -5.355000000     1.616000000     1.049000000
H    -5.358000000     2.122000000     0.237000000
H    -4.646000000     0.983000000     0.935000000
O     1.475000000    -2.788000000     1.037000000
H     1.240000000    -3.713000000     0.971000000
H     0.783000000    -2.330000000     0.560000000
