158
-3029.93736
C     0.002000000     0.925000000    -1.176000000
H     0.093000000     1.508000000    -2.090000000
C     1.084000000     0.604000000    -0.299000000
H     2.040000000     1.080000000    -0.506000000
C     0.926000000    -0.220000000     0.791000000
H     1.677000000    -0.399000000     1.455000000
C    -0.288000000    -0.898000000     0.951000000
H    -0.407000000    -1.572000000     1.796000000
C    -1.392000000    -0.589000000     0.127000000
H    -2.346000000    -1.077000000     0.307000000
C    -1.222000000     0.302000000    -0.945000000
C    -2.314000000     0.565000000    -1.928000000
O    -1.996000000     0.999000000    -3.034000000
O    -3.476000000     0.241000000    -1.708000000
O    -4.191000000    -2.429000000    -2.325000000
H    -3.602000000    -1.859000000    -1.830000000
H    -4.958000000    -1.884000000    -2.504000000
O     4.780000000     1.513000000     1.251000000
H     4.969000000     2.253000000     0.673000000
H     4.503000000     1.917000000     2.073000000
O     4.447000000     3.203000000    -3.010000000
H     4.958000000     3.886000000    -2.577000000
H     3.536000000     3.451000000    -2.856000000
O     1.966000000     3.150000000     4.766000000
H     1.487000000     3.920000000     4.459000000
H     2.367000000     3.430000000     5.589000000
O    -0.855000000     3.669000000    -6.971000000
H    -1.621000000     3.096000000    -7.006000000
H    -0.124000000     3.106000000    -7.225000000
O    -0.894000000     4.171000000     0.782000000
H    -1.484000000     4.922000000     0.840000000
H    -1.388000000     3.515000000     0.290000000
O     2.274000000    -3.035000000     5.641000000
H     2.106000000    -3.702000000     6.307000000
H     1.437000000    -2.934000000     5.187000000
O    -2.202000000     0.473000000     5.293000000
H    -2.985000000     0.193000000     4.820000000
H    -1.967000000     1.311000000     4.894000000
O    -0.318000000    -1.542000000     5.764000000
H     0.356000000    -1.009000000     5.342000000
H    -1.099000000    -0.989000000     5.759000000
O     5.147000000     4.428000000     2.848000000
H     4.895000000     4.297000000     1.934000000
H     6.004000000     4.852000000     2.803000000
O     2.685000000     3.141000000    -5.792000000
H     2.294000000     3.443000000    -4.972000000
H     3.598000000     2.958000000    -5.569000000
O    -2.923000000    -3.617000000     2.845000000
H    -2.447000000    -3.598000000     2.014000000
H    -3.693000000    -4.156000000     2.666000000
O    -3.143000000    -1.228000000    -4.992000000
H    -2.984000000    -0.713000000    -4.201000000
H    -2.828000000    -2.105000000    -4.774000000
O    -5.251000000     1.270000000    -5.968000000
H    -5.127000000     1.656000000    -5.101000000
H    -5.020000000     1.970000000    -6.578000000
O    -2.341000000     1.316000000    -6.632000000
H    -1.956000000     0.814000000    -7.350000000
H    -3.033000000     0.751000000    -6.288000000
O    -6.524000000    -1.179000000    -2.931000000
H    -6.636000000    -0.244000000    -3.104000000
H    -6.248000000    -1.547000000    -3.771000000
O     2.330000000    -2.647000000     2.496000000
H     1.613000000    -3.278000000     2.555000000
H     2.201000000    -2.066000000     3.245000000
O    -3.965000000     2.501000000    -0.196000000
H    -4.009000000     3.236000000    -0.807000000
H    -3.983000000     1.723000000    -0.754000000
O     1.533000000     3.635000000    -3.313000000
H     0.599000000     3.620000000    -3.521000000
H     1.569000000     3.897000000    -2.393000000
O    -1.468000000     2.754000000     4.047000000
H    -0.635000000     2.916000000     3.604000000
H    -2.008000000     3.513000000     3.826000000
O    -1.004000000    -3.843000000    -4.130000000
H    -0.481000000    -3.063000000    -4.314000000
H    -1.421000000    -4.053000000    -4.966000000
O    -4.552000000     2.082000000    -3.637000000
H    -3.788000000     1.604000000    -3.315000000
H    -4.387000000     2.992000000    -3.389000000
O    -0.831000000    -5.332000000    -0.115000000
H    -1.774000000    -5.415000000    -0.253000000
H    -0.570000000    -6.170000000     0.268000000
O    -1.206000000     3.304000000    -3.650000000
H    -1.600000000     2.458000000    -3.437000000
H    -1.413000000     3.438000000    -4.575000000
O    -6.929000000     1.617000000    -2.582000000
H    -7.002000000     2.407000000    -2.047000000
H    -5.997000000     1.557000000    -2.794000000
O     4.477000000    -5.097000000    -0.415000000
H     4.801000000    -5.095000000    -1.316000000
H     3.729000000    -5.693000000    -0.431000000
O    -5.139000000    -1.032000000     0.253000000
H    -4.560000000    -0.547000000    -0.335000000
H    -6.003000000    -0.646000000     0.110000000
O    -0.244000000    -0.983000000    -4.203000000
H    -0.678000000    -0.253000000    -3.762000000
H    -0.454000000    -0.863000000    -5.129000000
O     7.166000000     1.029000000    -1.312000000
H     6.285000000     0.736000000    -1.082000000
H     7.587000000     1.207000000    -0.471000000
O     4.820000000    -2.621000000     0.975000000
H     4.715000000    -3.394000000     0.420000000
H     3.985000000    -2.541000000     1.436000000
O     4.134000000    -1.168000000     6.945000000
H     3.479000000    -1.428000000     6.298000000
H     3.906000000    -1.664000000     7.731000000
O     4.716000000    -0.489000000    -0.688000000
H     4.492000000     0.164000000    -0.025000000
H     4.622000000    -1.329000000    -0.240000000
O     1.189000000    -3.729000000    -0.963000000
H     0.512000000    -4.354000000    -0.702000000
H     0.977000000    -2.932000000    -0.477000000
O    -5.644000000    -1.372000000    -5.791000000
H    -5.724000000    -0.418000000    -5.798000000
H    -4.710000000    -1.533000000    -5.653000000
O    -4.200000000    -2.181000000     5.014000000
H    -3.446000000    -2.452000000     4.490000000
H    -4.632000000    -1.512000000     4.483000000
O     2.361000000    -1.216000000    -4.388000000
H     2.789000000    -0.551000000    -3.848000000
H     1.431000000    -1.137000000    -4.173000000
O     7.215000000    -2.052000000     2.731000000
H     7.922000000    -1.971000000     2.091000000
H     6.413000000    -1.956000000     2.217000000
O     1.619000000     4.455000000    -0.562000000
H     2.050000000     5.219000000    -0.177000000
H     0.700000000     4.547000000    -0.311000000
O     0.098000000    -4.582000000     3.735000000
H    -0.433000000    -4.981000000     3.045000000
H    -0.002000000    -5.170000000     4.484000000
O     1.478000000    -1.333000000     8.172000000
H     1.155000000    -1.566000000     7.302000000
H     0.863000000    -1.751000000     8.775000000
O    -7.585000000     0.323000000    -0.300000000
H    -7.614000000     0.677000000    -1.189000000
H    -7.511000000     1.094000000     0.263000000
O    -5.035000000     2.156000000     2.302000000
H    -4.321000000     2.749000000     2.536000000
H    -5.310000000     2.444000000     1.431000000
O    -5.060000000    -4.285000000     1.310000000
H    -4.510000000    -4.940000000     0.880000000
H    -4.886000000    -3.475000000     0.831000000
O     1.228000000    -0.016000000     4.075000000
H     1.913000000     0.635000000     4.227000000
H     0.827000000     0.246000000     3.247000000
O    -4.013000000    -0.548000000     2.931000000
H    -3.888000000     0.274000000     2.458000000
H    -4.155000000    -1.200000000     2.245000000
O     3.615000000     0.610000000    -2.981000000
H     3.948000000     0.195000000    -2.186000000
H     4.078000000     1.447000000    -3.026000000
O     4.409000000     4.010000000     0.115000000
H     4.827000000     4.556000000    -0.551000000
H     3.477000000     4.041000000    -0.100000000
O    -3.164000000     4.349000000    -1.998000000
H    -2.301000000     4.517000000    -2.375000000
H    -3.712000000     5.062000000    -2.326000000
