158
-3064.27945
C     1.137000000    -0.157000000     0.848000000
H     2.088000000    -0.310000000     1.352000000
C     1.227000000    -0.029000000    -0.539000000
H     2.160000000    -0.147000000    -1.086000000
C     0.051000000     0.203000000    -1.155000000
H     0.078000000     0.363000000    -2.196000000
C    -1.211000000     0.162000000    -0.529000000
H    -2.089000000     0.400000000    -1.124000000
C    -1.246000000    -0.012000000     0.810000000
H    -2.185000000     0.006000000     1.358000000
C    -0.080000000    -0.193000000     1.575000000
C    -0.034000000    -0.346000000     3.055000000
O    -0.947000000    -0.831000000     3.717000000
O     0.890000000     0.066000000     3.687000000
O     1.466000000     2.543000000    -4.485000000
H     0.951000000     3.213000000    -4.935000000
H     0.964000000     1.736000000    -4.603000000
O     1.380000000    -0.126000000    -5.106000000
H     1.422000000    -0.191000000    -6.060000000
H     2.279000000    -0.286000000    -4.816000000
O     3.165000000     1.435000000     3.299000000
H     2.370000000     0.923000000     3.449000000
H     3.012000000     2.257000000     3.764000000
O    -2.481000000    -2.674000000    -6.524000000
H    -2.421000000    -3.574000000    -6.205000000
H    -2.503000000    -2.758000000    -7.477000000
O     1.721000000    -3.004000000     6.410000000
H     2.146000000    -2.178000000     6.642000000
H     1.149000000    -3.195000000     7.153000000
O     2.233000000     0.360000000     9.115000000
H     2.154000000     0.035000000     8.218000000
H     1.433000000     0.061000000     9.549000000
O     3.809000000    -0.595000000    -3.244000000
H     4.137000000    -0.715000000    -2.353000000
H     4.100000000     0.283000000    -3.491000000
O     3.899000000     0.729000000    -6.983000000
H     3.952000000     1.297000000    -7.751000000
H     3.038000000     0.317000000    -7.050000000
O     2.766000000     2.801000000     0.586000000
H     2.056000000     2.860000000    -0.053000000
H     2.477000000     2.129000000     1.204000000
O     6.072000000     1.403000000     3.053000000
H     5.150000000     1.571000000     2.857000000
H     6.488000000     2.263000000     3.004000000
O    -1.078000000    -1.262000000    -4.029000000
H    -0.430000000    -0.788000000    -4.551000000
H    -1.183000000    -2.099000000    -4.480000000
O     1.709000000     4.347000000    -1.781000000
H     0.909000000     4.774000000    -1.473000000
H     1.484000000     4.018000000    -2.651000000
O    -3.082000000    -2.269000000     6.416000000
H    -3.316000000    -3.198000000     6.422000000
H    -3.213000000    -1.995000000     5.508000000
O    -0.764000000     2.234000000     7.697000000
H    -0.182000000     2.311000000     8.453000000
H    -0.564000000     1.375000000     7.327000000
O    -5.780000000     0.836000000    -2.957000000
H    -4.835000000     0.683000000    -2.938000000
H    -6.151000000     0.010000000    -3.267000000
O    -6.248000000    -1.083000000     4.404000000
H    -5.651000000    -1.261000000     3.677000000
H    -5.932000000    -0.261000000     4.779000000
O    -2.655000000     3.422000000     3.271000000
H    -3.009000000     4.275000000     3.521000000
H    -3.416000000     2.927000000     2.969000000
O    -2.766000000    -2.953000000    -1.887000000
H    -2.375000000    -3.772000000    -2.191000000
H    -2.366000000    -2.279000000    -2.437000000
O    -1.015000000    -3.968000000    -4.508000000
H    -0.712000000    -4.553000000    -3.813000000
H    -1.257000000    -4.553000000    -5.226000000
O     5.000000000     1.609000000    -0.817000000
H     4.477000000     1.899000000    -0.069000000
H     5.327000000     2.418000000    -1.209000000
O    -3.399000000    -1.572000000     3.660000000
H    -3.205000000    -2.120000000     2.899000000
H    -2.637000000    -0.998000000     3.742000000
O     2.555000000    -3.869000000    -6.558000000
H     3.435000000    -3.525000000    -6.707000000
H     2.334000000    -3.586000000    -5.670000000
O    -3.968000000     2.057000000     1.178000000
H    -4.507000000     2.477000000     0.507000000
H    -4.277000000     1.151000000     1.200000000
O     0.957000000    -5.255000000     0.189000000
H     0.986000000    -4.505000000    -0.406000000
H     1.479000000    -5.928000000    -0.249000000
O    -3.158000000     0.511000000    -3.717000000
H    -2.511000000    -0.188000000    -3.807000000
H    -3.126000000     0.976000000    -4.553000000
O    -0.469000000    -0.050000000     6.360000000
H    -0.372000000    -0.255000000     5.430000000
H    -1.258000000    -0.520000000     6.627000000
O    -4.969000000    -0.498000000     0.762000000
H    -4.575000000    -1.286000000     1.137000000
H    -5.528000000    -0.823000000     0.056000000
O     4.722000000    -3.593000000    -2.034000000
H     5.050000000    -4.082000000    -1.280000000
H     4.668000000    -2.688000000    -1.728000000
O    -5.741000000    -3.188000000    -1.613000000
H    -4.838000000    -3.078000000    -1.912000000
H    -5.661000000    -3.428000000    -0.690000000
O     2.464000000    -0.302000000     6.234000000
H     2.914000000     0.525000000     6.064000000
H     1.693000000    -0.277000000     5.667000000
O    -0.907000000    -4.203000000     1.829000000
H    -0.172000000    -4.375000000     1.241000000
H    -0.511000000    -3.783000000     2.592000000
O    -0.825000000    -0.712000000    -7.594000000
H    -1.242000000    -1.354000000    -7.021000000
H    -1.554000000    -0.240000000    -7.997000000
O    -0.252000000    -3.254000000     4.344000000
H    -0.627000000    -2.406000000     4.106000000
H     0.433000000    -3.043000000     4.979000000
O     0.038000000     2.595000000     4.117000000
H    -0.788000000     2.777000000     3.668000000
H     0.130000000     1.643000000     4.072000000
O    -2.220000000     1.939000000    -5.917000000
H    -1.516000000     2.517000000    -6.212000000
H    -2.297000000     1.282000000    -6.608000000
O    -2.593000000    -4.926000000     5.163000000
H    -2.318000000    -5.773000000     4.813000000
H    -2.126000000    -4.283000000     4.630000000
O    -3.422000000    -3.006000000     0.793000000
H    -2.810000000    -3.651000000     1.145000000
H    -3.150000000    -2.889000000    -0.117000000
O     4.138000000     2.241000000    -4.564000000
H     3.188000000     2.346000000    -4.508000000
H     4.281000000     1.792000000    -5.397000000
O     4.459000000    -2.678000000     1.623000000
H     4.271000000    -2.041000000     2.313000000
H     5.155000000    -3.225000000     1.987000000
O    -5.659000000     3.067000000    -0.767000000
H    -5.476000000     2.997000000    -1.704000000
H    -6.206000000     2.305000000    -0.573000000
O    -1.662000000     3.712000000     0.294000000
H    -2.259000000     2.988000000     0.106000000
H    -1.318000000     3.518000000     1.166000000
O     1.858000000    -2.676000000    -3.773000000
H     2.535000000    -2.009000000    -3.661000000
H     1.065000000    -2.180000000    -3.975000000
O     3.803000000     2.514000000     6.777000000
H     3.274000000     3.083000000     6.218000000
H     3.608000000     2.804000000     7.668000000
O     2.531000000    -5.536000000    -2.602000000
H     2.379000000    -4.595000000    -2.693000000
H     3.483000000    -5.622000000    -2.565000000
O     4.058000000    -1.265000000     3.954000000
H     4.126000000    -0.357000000     3.658000000
H     3.445000000    -1.232000000     4.689000000
O     2.400000000     3.718000000     4.768000000
H     2.187000000     4.650000000     4.720000000
H     1.592000000     3.275000000     4.509000000
O     0.303000000    -2.972000000    -1.335000000
H    -0.164000000    -2.172000000    -1.094000000
H     1.099000000    -2.663000000    -1.768000000
O     4.536000000    -1.133000000    -0.709000000
H     4.421000000    -1.529000000     0.155000000
H     4.809000000    -0.234000000    -0.527000000
