158
-3008.79273
C     1.072000000     0.453000000    -0.792000000
H     1.979000000     0.871000000    -1.222000000
C     1.100000000     0.184000000     0.530000000
H     2.103000000     0.375000000     0.903000000
C    -0.032000000    -0.168000000     1.202000000
H    -0.053000000    -0.307000000     2.331000000
C    -1.154000000    -0.590000000     0.475000000
H    -2.006000000    -1.001000000     1.011000000
C    -1.230000000    -0.357000000    -0.847000000
H    -2.130000000    -0.693000000    -1.356000000
C    -0.094000000     0.243000000    -1.520000000
C    -0.041000000     0.500000000    -3.022000000
O     0.912000000     0.390000000    -3.729000000
O    -1.031000000     1.115000000    -3.524000000
O     5.300000000    -1.030000000    -0.021000000
H     5.300000000    -1.959000000    -0.251000000
H     4.650000000    -0.957000000     0.679000000
O    -0.050000000     3.420000000     2.227000000
H     0.705000000     2.848000000     2.369000000
H    -0.098000000     3.953000000     3.021000000
O     1.188000000     0.906000000     5.757000000
H     0.384000000     1.213000000     6.177000000
H     1.879000000     1.105000000     6.388000000
O    -0.148000000    -1.127000000     4.469000000
H    -0.001000000    -0.292000000     4.912000000
H    -0.528000000    -1.692000000     5.142000000
O    -2.195000000     1.933000000     2.459000000
H    -1.700000000     2.690000000     2.774000000
H    -1.759000000     1.684000000     1.644000000
O    -5.038000000     1.802000000     4.447000000
H    -4.368000000     2.481000000     4.365000000
H    -4.551000000     0.979000000     4.406000000
O     2.849000000     5.147000000    -4.506000000
H     3.125000000     5.023000000    -5.414000000
H     2.146000000     4.509000000    -4.381000000
O    -2.727000000     2.563000000    -7.044000000
H    -2.998000000     1.658000000    -7.194000000
H    -3.546000000     3.059000000    -7.026000000
O     1.710000000     4.285000000     0.314000000
H     1.085000000     3.870000000     0.909000000
H     1.164000000     4.724000000    -0.339000000
O    -3.262000000    -0.455000000     3.083000000
H    -2.584000000     0.138000000     2.760000000
H    -2.920000000    -0.777000000     3.917000000
O    -5.879000000     2.213000000    -2.412000000
H    -6.575000000     2.075000000    -3.054000000
H    -5.170000000     1.637000000    -2.700000000
O    -5.302000000    -2.404000000    -1.018000000
H    -5.585000000    -2.392000000    -1.933000000
H    -5.461000000    -1.513000000    -0.707000000
O    -3.373000000    -1.273000000     5.654000000
H    -3.173000000    -1.617000000     6.525000000
H    -3.187000000    -0.336000000     5.717000000
O     4.890000000     1.854000000     2.986000000
H     5.004000000     2.603000000     3.570000000
H     5.653000000     1.881000000     2.409000000
O    -3.193000000     4.806000000    -4.853000000
H    -4.135000000     4.968000000    -4.801000000
H    -3.014000000     4.198000000    -4.136000000
O     3.670000000     1.373000000    -7.937000000
H     3.479000000     1.140000000    -7.028000000
H     4.522000000     0.974000000    -8.112000000
O    -1.969000000    -0.129000000     7.812000000
H    -1.052000000    -0.309000000     7.603000000
H    -1.932000000     0.484000000     8.546000000
O     4.740000000    -0.793000000     3.229000000
H     4.625000000     0.155000000     3.165000000
H     3.853000000    -1.147000000     3.160000000
O     0.258000000    -2.938000000    -3.326000000
H     0.294000000    -3.673000000    -3.938000000
H    -0.061000000    -3.321000000    -2.509000000
O    -4.143000000     0.096000000    -3.214000000
H    -4.222000000    -0.856000000    -3.272000000
H    -3.321000000     0.296000000    -3.663000000
O    -1.004000000    -4.013000000    -1.143000000
H    -1.960000000    -4.041000000    -1.090000000
H    -0.709000000    -4.582000000    -0.433000000
O    -0.677000000     0.918000000    -6.273000000
H    -0.476000000     1.095000000    -5.354000000
H    -1.289000000     1.610000000    -6.522000000
O    -3.607000000    -5.004000000    -1.277000000
H    -4.163000000    -4.243000000    -1.111000000
H    -3.886000000    -5.323000000    -2.135000000
O     2.775000000    -2.062000000    -3.080000000
H     2.890000000    -2.972000000    -2.809000000
H     1.827000000    -1.938000000    -3.111000000
O     2.072000000    -4.276000000    -1.188000000
H     1.614000000    -5.112000000    -1.275000000
H     1.381000000    -3.617000000    -1.251000000
O     4.590000000     0.001000000    -2.930000000
H     4.009000000    -0.760000000    -2.948000000
H     4.440000000     0.398000000    -2.072000000
O    -1.166000000    -1.727000000    -5.273000000
H    -1.452000000    -0.907000000    -4.871000000
H    -0.588000000    -2.125000000    -4.622000000
O     2.652000000    -1.854000000     7.476000000
H     3.194000000    -2.233000000     8.168000000
H     3.002000000    -2.226000000     6.666000000
O    -2.144000000     3.277000000    -2.489000000
H    -1.861000000     2.576000000    -3.077000000
H    -2.681000000     2.836000000    -1.831000000
O     2.735000000    -2.148000000     0.999000000
H     2.367000000    -2.993000000     1.257000000
H     2.033000000    -1.519000000     1.166000000
O    -6.203000000    -0.526000000     2.707000000
H    -6.314000000     0.030000000     1.936000000
H    -5.352000000    -0.944000000     2.580000000
O    -5.190000000    -2.490000000    -4.190000000
H    -5.563000000    -2.370000000    -5.063000000
H    -4.466000000    -3.103000000    -4.322000000
O    -4.554000000     1.993000000     1.098000000
H    -4.454000000     2.944000000     1.042000000
H    -3.933000000     1.727000000     1.777000000
O     2.753000000    -2.162000000    -6.103000000
H     2.808000000    -2.543000000    -5.226000000
H     2.718000000    -1.218000000    -5.952000000
O     2.988000000     0.554000000    -5.397000000
H     3.736000000     0.411000000    -4.816000000
H     2.225000000     0.333000000    -4.864000000
O    -1.050000000    -2.156000000    -7.825000000
H    -1.132000000    -1.701000000    -6.988000000
H    -0.126000000    -2.404000000    -7.873000000
O     0.083000000    -1.962000000     7.061000000
H    -0.143000000    -2.718000000     7.603000000
H     1.040000000    -1.954000000     7.048000000
O    -2.357000000     2.023000000     5.580000000
H    -2.657000000     2.718000000     4.994000000
H    -2.635000000     2.307000000     6.450000000
O    -5.720000000     0.153000000    -0.366000000
H    -6.001000000     0.597000000    -1.166000000
H    -5.319000000     0.843000000     0.162000000
O    -2.231000000    -4.439000000     3.921000000
H    -3.109000000    -4.755000000     3.708000000
H    -2.367000000    -3.546000000     4.236000000
O    -0.194000000     5.379000000    -1.421000000
H     0.233000000     6.112000000    -1.865000000
H    -0.414000000     4.769000000    -2.125000000
O     2.422000000    -2.099000000     4.347000000
H     2.341000000    -2.979000000     3.979000000
H     1.539000000    -1.734000000     4.289000000
O     3.438000000     3.331000000    -1.919000000
H     2.684000000     3.237000000    -2.501000000
H     3.066000000     3.636000000    -1.092000000
O     6.187000000     2.877000000    -1.046000000
H     5.425000000     2.338000000    -0.831000000
H     5.816000000     3.682000000    -1.408000000
O     2.205000000    -4.446000000     2.266000000
H     1.768000000    -4.958000000     2.946000000
H     2.501000000    -5.096000000     1.629000000
O     5.348000000     2.639000000    -4.426000000
H     4.587000000     2.985000000    -4.892000000
H     5.001000000     2.346000000    -3.584000000
O     2.160000000     2.094000000     3.109000000
H     3.083000000     1.919000000     2.925000000
H     2.007000000     1.694000000     3.965000000
O     1.097000000     3.006000000    -3.679000000
H     1.491000000     2.138000000    -3.761000000
H     0.154000000     2.842000000    -3.674000000
