158
-3036.49761
C    -0.221000000     0.120000000    -1.460000000
H    -0.339000000     0.467000000    -2.483000000
C     0.848000000     0.648000000    -0.765000000
H     1.618000000     1.213000000    -1.283000000
C     0.984000000     0.411000000     0.605000000
H     1.877000000     0.604000000     1.161000000
C    -0.001000000    -0.401000000     1.199000000
H     0.028000000    -0.577000000     2.271000000
C    -1.054000000    -0.920000000     0.507000000
H    -1.810000000    -1.507000000     1.023000000
C    -1.191000000    -0.658000000    -0.807000000
C    -2.306000000    -1.213000000    -1.624000000
O    -2.236000000    -0.976000000    -2.800000000
O    -3.177000000    -1.858000000    -1.136000000
O    -3.325000000    -5.587000000     1.366000000
H    -3.637000000    -4.696000000     1.212000000
H    -2.401000000    -5.564000000     1.117000000
O     5.316000000    -3.576000000     3.696000000
H     4.849000000    -4.284000000     4.141000000
H     4.774000000    -2.801000000     3.844000000
O     2.389000000     2.498000000    -5.531000000
H     3.165000000     2.719000000    -5.015000000
H     1.655000000     2.648000000    -4.935000000
O     2.536000000     1.649000000     3.160000000
H     2.796000000     1.652000000     4.082000000
H     2.500000000     2.575000000     2.919000000
O    -2.671000000     0.296000000     2.951000000
H    -3.306000000     0.891000000     2.554000000
H    -1.862000000     0.806000000     3.000000000
O    -0.365000000     1.574000000     3.816000000
H    -0.253000000     1.944000000     4.692000000
H     0.475000000     1.727000000     3.383000000
O     3.705000000     2.550000000    -2.136000000
H     2.887000000     2.904000000    -1.788000000
H     3.654000000     1.610000000    -1.959000000
O    -2.781000000    -1.383000000    -5.450000000
H    -2.685000000    -1.488000000    -4.503000000
H    -2.900000000    -0.442000000    -5.576000000
O    -4.873000000     1.744000000    -2.087000000
H    -5.165000000     2.489000000    -1.560000000
H    -4.284000000     2.127000000    -2.737000000
O    -0.657000000     0.954000000    -6.506000000
H    -0.369000000     0.060000000    -6.686000000
H    -0.158000000     1.495000000    -7.119000000
O    -7.549000000    -2.569000000    -2.329000000
H    -6.818000000    -1.962000000    -2.219000000
H    -7.416000000    -2.950000000    -3.197000000
O     6.538000000     0.015000000    -2.767000000
H     5.675000000    -0.128000000    -2.378000000
H     7.036000000     0.466000000    -2.085000000
O     7.322000000     2.451000000     1.912000000
H     7.384000000     1.644000000     2.424000000
H     6.385000000     2.561000000     1.750000000
O     2.905000000     2.225000000     5.920000000
H     3.278000000     2.485000000     6.762000000
H     1.966000000     2.384000000     6.015000000
O     1.325000000     3.762000000    -2.185000000
H     1.192000000     4.355000000    -2.925000000
H     0.506000000     3.806000000    -1.692000000
O     5.107000000     0.506000000     6.335000000
H     4.752000000    -0.291000000     6.728000000
H     4.342000000     0.962000000     5.983000000
O    -0.915000000    -4.912000000    -1.604000000
H    -0.604000000    -5.813000000    -1.692000000
H    -0.325000000    -4.516000000    -0.963000000
O    -5.520000000    -0.962000000    -1.663000000
H    -5.450000000    -0.050000000    -1.946000000
H    -4.621000000    -1.290000000    -1.688000000
O     0.171000000    -3.959000000     2.766000000
H    -0.635000000    -3.444000000     2.797000000
H    -0.114000000    -4.859000000     2.921000000
O     6.890000000     0.857000000     4.133000000
H     6.068000000     0.773000000     4.617000000
H     6.996000000     0.013000000     3.694000000
O    -2.223000000     1.309000000    -4.371000000
H    -2.150000000     0.607000000    -3.724000000
H    -1.712000000     0.999000000    -5.118000000
O    -6.180000000    -1.497000000     1.576000000
H    -6.482000000    -1.084000000     0.767000000
H    -6.679000000    -1.062000000     2.268000000
O     2.695000000    -5.028000000     2.552000000
H     1.917000000    -4.533000000     2.809000000
H     2.352000000    -5.774000000     2.059000000
O    -3.900000000    -2.809000000     1.232000000
H    -3.622000000    -2.463000000     0.384000000
H    -4.796000000    -2.490000000     1.339000000
O    -0.562000000    -2.830000000    -3.765000000
H    -1.110000000    -2.077000000    -3.547000000
H    -0.788000000    -3.490000000    -3.109000000
O     4.619000000     4.432000000     3.863000000
H     4.618000000     4.099000000     4.760000000
H     4.895000000     5.345000000     3.946000000
O     5.153000000    -1.674000000     0.108000000
H     4.846000000    -1.172000000     0.863000000
H     4.745000000    -2.534000000     0.211000000
O    -3.723000000    -4.206000000    -1.752000000
H    -3.632000000    -3.351000000    -1.332000000
H    -2.865000000    -4.617000000    -1.648000000
O     0.823000000    -3.545000000     0.192000000
H     0.982000000    -3.569000000     1.135000000
H     0.830000000    -2.614000000    -0.029000000
O     0.024000000    -2.329000000    -6.477000000
H    -0.846000000    -2.051000000    -6.760000000
H    -0.106000000    -2.655000000    -5.586000000
O     2.137000000    -2.600000000    -3.362000000
H     1.207000000    -2.588000000    -3.589000000
H     2.584000000    -2.761000000    -4.193000000
O     6.505000000     3.631000000    -0.752000000
H     5.590000000     3.351000000    -0.732000000
H     6.908000000     3.186000000    -0.006000000
O    -2.743000000     3.800000000     4.793000000
H    -2.375000000     4.542000000     5.274000000
H    -2.033000000     3.511000000     4.220000000
O    -0.946000000     3.153000000    -0.142000000
H    -1.474000000     2.385000000    -0.358000000
H    -0.277000000     2.823000000     0.458000000
O    -3.199000000    -1.334000000     5.173000000
H    -3.143000000    -1.038000000     4.265000000
H    -2.781000000    -0.637000000     5.679000000
O    -2.480000000    -3.308000000     3.467000000
H    -2.743000000    -2.864000000     4.273000000
H    -3.023000000    -2.910000000     2.786000000
O     1.145000000     5.957000000     0.340000000
H     0.356000000     5.701000000    -0.138000000
H     1.770000000     6.200000000    -0.343000000
O     3.033000000    -1.900000000     5.100000000
H     2.089000000    -1.753000000     5.158000000
H     3.319000000    -1.979000000     6.011000000
O    -6.266000000    -4.385000000    -0.659000000
H    -6.672000000    -3.536000000    -0.834000000
H    -5.371000000    -4.293000000    -0.985000000
O     3.812000000     5.777000000    -1.169000000
H     4.014000000     4.908000000    -0.822000000
H     4.282000000     5.818000000    -2.002000000
O     2.004000000     4.199000000     2.330000000
H     2.544000000     4.801000000     2.842000000
H     1.581000000     4.755000000     1.675000000
O     4.709000000     3.052000000     1.456000000
H     4.889000000     3.558000000     2.248000000
H     3.914000000     2.560000000     1.661000000
O     0.217000000    -2.116000000     5.176000000
H    -0.193000000    -1.251000000     5.148000000
H     0.318000000    -2.363000000     4.257000000
O    -4.571000000    -4.762000000    -4.131000000
H    -4.233000000    -4.541000000    -3.263000000
H    -3.902000000    -5.331000000    -4.512000000
O     4.075000000    -0.278000000    -1.922000000
H     4.456000000    -0.833000000    -1.242000000
H     3.290000000    -0.748000000    -2.203000000
O     3.696000000    -0.577000000     2.399000000
H     3.144000000     0.203000000     2.337000000
H     3.372000000    -1.039000000     3.172000000
O     5.098000000     2.654000000    -4.767000000
H     4.904000000     2.469000000    -3.848000000
H     5.101000000     1.795000000    -5.189000000
O    -2.362000000     3.872000000    -3.095000000
H    -2.155000000     2.946000000    -2.968000000
H    -2.315000000     4.000000000    -4.042000000
