158
-3018.29875
C     0.605000000     1.327000000     0.116000000
H     0.780000000     2.389000000     0.267000000
C     0.115000000     0.545000000     1.160000000
H     0.167000000     0.904000000     2.185000000
C    -0.485000000    -0.719000000     0.880000000
H    -0.909000000    -1.324000000     1.703000000
C    -0.458000000    -1.187000000    -0.419000000
H    -0.875000000    -2.151000000    -0.695000000
C     0.151000000    -0.432000000    -1.410000000
H     0.184000000    -0.799000000    -2.432000000
C     0.601000000     0.840000000    -1.164000000
C     1.132000000     1.742000000    -2.283000000
O     1.773000000     2.758000000    -2.036000000
O     1.009000000     1.385000000    -3.444000000
O     1.327000000     0.835000000     5.791000000
H     0.530000000     1.231000000     6.142000000
H     1.106000000    -0.090000000     5.679000000
O    -2.479000000     1.433000000    -0.513000000
H    -3.339000000     1.519000000    -0.925000000
H    -2.506000000     0.581000000    -0.079000000
O     3.148000000     3.862000000    -4.115000000
H     2.819000000     3.585000000    -4.971000000
H     2.700000000     3.290000000    -3.491000000
O    -4.714000000    -5.546000000    -1.832000000
H    -3.995000000    -5.018000000    -1.484000000
H    -5.450000000    -4.937000000    -1.893000000
O    -2.938000000     0.132000000     5.495000000
H    -2.204000000     0.235000000     6.100000000
H    -3.589000000    -0.366000000     5.990000000
O    -1.844000000     1.364000000    -3.323000000
H    -1.727000000     1.425000000    -2.375000000
H    -0.954000000     1.358000000    -3.675000000
O    -0.736000000     6.515000000    -4.621000000
H    -0.395000000     5.634000000    -4.467000000
H     0.044000000     7.067000000    -4.682000000
O     3.072000000    -1.893000000    -6.800000000
H     2.680000000    -1.827000000    -5.929000000
H     2.583000000    -1.264000000    -7.330000000
O     0.332000000     6.783000000     3.263000000
H     0.987000000     6.229000000     2.839000000
H    -0.167000000     7.161000000     2.539000000
O    -5.115000000     2.772000000     1.469000000
H    -4.822000000     2.836000000     2.378000000
H    -4.756000000     1.940000000     1.160000000
O     4.158000000     7.103000000    -3.547000000
H     4.148000000     6.148000000    -3.616000000
H     4.112000000     7.408000000    -4.453000000
O    -2.533000000     2.737000000    -5.787000000
H    -3.319000000     2.630000000    -5.252000000
H    -1.812000000     2.507000000    -5.201000000
O    -2.816000000    -1.282000000    -4.056000000
H    -3.299000000    -0.463000000    -4.168000000
H    -1.975000000    -1.126000000    -4.485000000
O     0.335000000     2.003000000    -6.049000000
H     0.986000000     2.685000000    -6.216000000
H     0.497000000     1.732000000    -5.146000000
O     3.228000000     2.849000000     2.994000000
H     4.089000000     2.485000000     3.199000000
H     2.764000000     2.134000000     2.557000000
O    -1.478000000    -4.811000000     4.663000000
H    -1.331000000    -4.300000000     5.459000000
H    -2.428000000    -4.804000000     4.546000000
O     1.282000000     0.118000000    -8.098000000
H     2.018000000     0.327000000    -8.672000000
H     1.109000000     0.932000000    -7.624000000
O     1.870000000    -3.180000000    -4.005000000
H     2.788000000    -3.441000000    -3.925000000
H     1.396000000    -3.800000000    -3.451000000
O     2.025000000     5.176000000     2.067000000
H     1.826000000     4.981000000     1.151000000
H     2.232000000     4.324000000     2.453000000
O    -4.253000000    -3.660000000     5.088000000
H    -4.415000000    -4.199000000     5.863000000
H    -4.805000000    -4.047000000     4.408000000
O     2.306000000    -2.174000000     0.573000000
H     1.675000000    -1.616000000     0.119000000
H     1.941000000    -2.285000000     1.450000000
O    -0.476000000     4.306000000    -2.964000000
H     0.298000000     3.753000000    -2.855000000
H    -0.916000000     4.273000000    -2.114000000
O    -1.867000000    -4.954000000     0.074000000
H    -2.346000000    -4.360000000    -0.504000000
H    -1.531000000    -5.635000000    -0.509000000
O     4.533000000    -1.661000000    -2.993000000
H     4.670000000    -2.361000000    -3.631000000
H     4.220000000    -2.110000000    -2.208000000
O     1.432000000    -2.727000000     3.040000000
H     0.903000000    -3.515000000     2.916000000
H     1.270000000    -2.470000000     3.948000000
O     4.702000000     0.717000000    -6.164000000
H     3.853000000     0.327000000    -5.956000000
H     5.226000000     0.585000000    -5.374000000
O     0.340000000    -2.899000000    -6.342000000
H     0.946000000    -2.408000000    -6.897000000
H     0.817000000    -3.027000000    -5.522000000
O     0.661000000    -5.195000000    -2.439000000
H     0.971000000    -5.051000000    -1.545000000
H     1.066000000    -6.020000000    -2.704000000
O    -3.229000000    -6.406000000     2.283000000
H    -3.010000000    -5.891000000     1.507000000
H    -3.916000000    -5.902000000     2.719000000
O     4.170000000    -3.986000000     2.862000000
H     3.444000000    -3.365000000     2.798000000
H     4.930000000    -3.444000000     3.077000000
O     1.777000000    -5.415000000     0.113000000
H     1.138000000    -5.315000000     0.819000000
H     2.207000000    -6.251000000     0.296000000
O     4.206000000    -0.270000000     0.928000000
H     3.675000000    -0.129000000     1.712000000
H     4.081000000    -1.195000000     0.717000000
O    -2.777000000     4.934000000     1.634000000
H    -2.212000000     4.834000000     2.400000000
H    -3.656000000     5.044000000     1.997000000
O    -4.376000000    -0.049000000     1.008000000
H    -5.165000000    -0.554000000     0.813000000
H    -4.029000000    -0.446000000     1.807000000
O     5.654000000     3.462000000    -2.754000000
H     5.067000000     3.441000000    -3.510000000
H     5.174000000     3.005000000    -2.064000000
O     2.761000000    -0.309000000    -4.564000000
H     3.081000000    -0.717000000    -3.759000000
H     2.016000000     0.223000000    -4.282000000
O     3.950000000    -3.671000000    -1.011000000
H     3.535000000    -4.530000000    -0.932000000
H     3.569000000    -3.154000000    -0.301000000
O     6.449000000     3.194000000     0.531000000
H     5.627000000     2.971000000     0.093000000
H     6.558000000     2.513000000     1.195000000
O    -4.553000000     2.573000000     4.313000000
H    -4.281000000     1.754000000     4.727000000
H    -4.359000000     3.246000000     4.965000000
O     1.046000000    -1.809000000     5.766000000
H     1.628000000    -2.424000000     6.214000000
H     0.279000000    -1.748000000     6.335000000
O    -3.231000000    -1.519000000     3.191000000
H    -3.611000000    -2.244000000     3.688000000
H    -2.883000000    -0.928000000     3.858000000
O     2.621000000     0.056000000     3.170000000
H     2.020000000    -0.688000000     3.120000000
H     3.098000000    -0.075000000     3.989000000
O    -3.120000000    -3.314000000    -1.901000000
H    -2.879000000    -3.659000000    -2.761000000
H    -3.119000000    -2.364000000    -2.015000000
O     1.276000000     4.787000000    -0.383000000
H     0.342000000     4.836000000    -0.586000000
H     1.610000000     4.099000000    -0.960000000
O     4.175000000     1.954000000    -0.975000000
H     4.077000000     1.057000000    -0.658000000
H     3.278000000     2.256000000    -1.122000000
O    -0.035000000    -4.790000000     2.284000000
H    -0.573000000    -4.858000000     3.073000000
H    -0.654000000    -4.902000000     1.563000000
O    -1.716000000    -4.791000000    -3.834000000
H    -1.839000000    -5.720000000    -4.029000000
H    -0.972000000    -4.770000000    -3.231000000
O    -1.438000000     3.926000000    -0.457000000
H    -1.826000000     4.316000000     0.326000000
H    -1.649000000     2.995000000    -0.392000000
