158
-3035.12366
C     0.038000000     0.436000000    -1.406000000
H     0.066000000     0.796000000    -2.432000000
C     0.958000000     0.766000000    -0.381000000
H     1.809000000     1.362000000    -0.702000000
C     0.759000000     0.409000000     0.902000000
H     1.392000000     0.840000000     1.703000000
C    -0.306000000    -0.481000000     1.215000000
H    -0.511000000    -0.694000000     2.261000000
C    -1.185000000    -0.918000000     0.216000000
H    -2.014000000    -1.581000000     0.452000000
C    -1.053000000    -0.419000000    -1.103000000
C    -1.898000000    -0.754000000    -2.291000000
O    -1.490000000    -0.480000000    -3.370000000
O    -2.874000000    -1.478000000    -2.175000000
O    -3.637000000    -5.364000000     0.102000000
H    -3.488000000    -4.959000000    -0.752000000
H    -4.545000000    -5.146000000     0.316000000
O     6.213000000    -0.943000000     4.318000000
H     5.461000000    -1.391000000     4.705000000
H     5.862000000    -0.515000000     3.537000000
O     3.726000000     2.768000000     1.438000000
H     4.012000000     2.901000000     0.534000000
H     2.886000000     3.224000000     1.492000000
O     1.069000000     2.228000000     6.506000000
H     0.810000000     3.148000000     6.561000000
H     0.987000000     1.902000000     7.403000000
O    -1.680000000     2.212000000     3.143000000
H    -1.666000000     2.246000000     2.187000000
H    -0.803000000     2.490000000     3.406000000
O     0.708000000     3.531000000     3.900000000
H     1.476000000     3.104000000     4.279000000
H     1.041000000     3.977000000     3.122000000
O     5.455000000     2.299000000    -3.025000000
H     4.544000000     2.565000000    -3.145000000
H     5.441000000     1.347000000    -3.126000000
O    -2.875000000    -1.597000000    -5.319000000
H    -2.562000000    -0.960000000    -4.677000000
H    -3.776000000    -1.781000000    -5.054000000
O    -4.366000000     2.181000000    -4.443000000
H    -3.440000000     2.094000000    -4.668000000
H    -4.437000000     3.052000000    -4.052000000
O     1.319000000     1.539000000    -6.238000000
H     1.224000000     0.745000000    -6.763000000
H     1.924000000     1.293000000    -5.538000000
O    -7.317000000    -2.561000000    -3.213000000
H    -6.482000000    -2.197000000    -3.508000000
H    -7.978000000    -1.986000000    -3.598000000
O     4.020000000    -2.556000000     4.932000000
H     4.303000000    -3.469000000     4.974000000
H     3.516000000    -2.424000000     5.735000000
O     3.884000000     3.036000000     5.786000000
H     2.987000000     3.196000000     6.082000000
H     3.986000000     2.085000000     5.837000000
O    -1.080000000     2.785000000     0.353000000
H    -1.249000000     3.378000000    -0.379000000
H    -0.545000000     2.087000000    -0.023000000
O     2.681000000     3.012000000    -3.296000000
H     2.178000000     3.538000000    -3.917000000
H     2.333000000     3.257000000    -2.438000000
O    -2.620000000     0.503000000     5.664000000
H    -2.273000000     0.239000000     6.517000000
H    -2.440000000     1.442000000     5.614000000
O     0.110000000    -4.660000000    -1.426000000
H    -0.247000000    -4.781000000    -0.547000000
H     0.937000000    -4.199000000    -1.288000000
O    -5.107000000    -0.775000000    -3.992000000
H    -5.390000000     0.138000000    -4.058000000
H    -4.337000000    -0.746000000    -3.423000000
O    -1.058000000    -5.028000000     0.878000000
H    -1.824000000    -5.401000000     0.443000000
H    -1.169000000    -5.259000000     1.800000000
O    -1.315000000     1.844000000    -4.693000000
H    -1.359000000     0.938000000    -4.386000000
H    -0.572000000     1.856000000    -5.296000000
O     2.440000000    -4.499000000     2.260000000
H     1.883000000    -4.265000000     3.002000000
H     1.954000000    -5.185000000     1.802000000
O    -4.603000000    -1.617000000    -0.373000000
H    -3.983000000    -1.522000000    -1.096000000
H    -5.343000000    -1.061000000    -0.617000000
O     7.314000000     1.180000000     0.296000000
H     6.398000000     0.975000000     0.109000000
H     7.517000000     1.915000000    -0.282000000
O     0.918000000    -1.658000000    -4.139000000
H     0.108000000    -1.263000000    -3.817000000
H     0.710000000    -2.587000000    -4.237000000
O     4.734000000    -0.238000000    -0.139000000
H     4.396000000    -0.170000000     0.754000000
H     4.836000000    -1.178000000    -0.285000000
O    -2.692000000    -4.013000000    -2.067000000
H    -2.789000000    -3.065000000    -2.160000000
H    -1.753000000    -4.146000000    -1.936000000
O     4.897000000    -2.935000000     1.430000000
H     4.738000000    -3.379000000     0.597000000
H     4.104000000    -3.094000000     1.941000000
O     1.499000000    -2.554000000    -0.278000000
H     1.093000000    -3.001000000     0.464000000
H     0.948000000    -1.786000000    -0.427000000
O    -1.209000000    -3.022000000    -7.201000000
H    -1.877000000    -2.619000000    -6.647000000
H    -1.703000000    -3.438000000    -7.908000000
O     0.875000000    -1.157000000    -6.735000000
H     0.155000000    -1.731000000    -6.997000000
H     1.138000000    -1.482000000    -5.874000000
O     3.946000000    -3.046000000    -1.269000000
H     3.079000000    -2.714000000    -1.037000000
H     4.048000000    -2.822000000    -2.195000000
O     3.555000000    -2.140000000    -3.932000000
H     2.645000000    -1.926000000    -4.137000000
H     3.745000000    -2.912000000    -4.466000000
O    -3.566000000    -4.177000000     2.851000000
H    -3.716000000    -3.236000000     2.766000000
H    -3.560000000    -4.501000000     1.950000000
O     4.708000000     4.775000000    -0.508000000
H     4.076000000     5.493000000    -0.543000000
H     4.488000000     4.226000000    -1.260000000
O    -1.708000000     4.699000000     5.173000000
H    -1.735000000     5.469000000     4.605000000
H    -1.397000000     3.993000000     4.607000000
O     1.704000000     4.095000000    -0.710000000
H     0.773000000     4.019000000    -0.918000000
H     1.810000000     4.997000000    -0.407000000
O     0.849000000    -3.307000000     4.145000000
H     0.724000000    -2.454000000     4.562000000
H     0.016000000    -3.760000000     4.273000000
O     4.157000000     0.440000000     6.317000000
H     3.720000000     0.045000000     7.071000000
H     3.777000000    -0.007000000     5.560000000
O    -3.799000000     0.623000000     3.289000000
H    -3.096000000     1.269000000     3.213000000
H    -3.729000000     0.299000000     4.187000000
O    -5.098000000    -1.779000000     2.234000000
H    -4.484000000    -1.148000000     2.609000000
H    -5.232000000    -1.478000000     1.336000000
O     1.745000000     0.616000000     4.319000000
H     1.153000000    -0.125000000     4.446000000
H     1.475000000     1.254000000     4.980000000
O     2.140000000     5.136000000     2.240000000
H     2.830000000     5.511000000     2.788000000
H     2.208000000     5.609000000     1.411000000
O     5.625000000     3.386000000     3.798000000
H     4.937000000     3.347000000     4.462000000
H     5.158000000     3.312000000     2.965000000
O    -0.156000000    -1.124000000     5.417000000
H    -0.789000000    -0.461000000     5.143000000
H    -0.666000000    -1.742000000     5.939000000
O    -4.464000000    -3.724000000    -4.601000000
H    -4.021000000    -3.666000000    -3.755000000
H    -3.982000000    -4.399000000    -5.079000000
O     5.680000000    -0.497000000    -2.890000000
H     5.133000000    -0.529000000    -2.104000000
H     5.329000000    -1.186000000    -3.454000000
O     4.593000000     0.388000000     2.673000000
H     3.781000000     0.103000000     3.092000000
H     4.382000000     1.242000000     2.297000000
O    -0.764000000     3.731000000    -2.148000000
H    -1.248000000     3.114000000    -2.697000000
H    -0.387000000     4.357000000    -2.766000000
