158
-3007.69037
C     1.134000000     0.879000000    -0.323000000
H     1.852000000     1.678000000    -0.485000000
C     0.854000000     0.428000000     0.955000000
H     1.504000000     0.782000000     1.752000000
C    -0.263000000    -0.412000000     1.149000000
H    -0.573000000    -0.847000000     2.043000000
C    -1.076000000    -0.763000000     0.087000000
H    -1.955000000    -1.378000000     0.261000000
C    -0.771000000    -0.371000000    -1.245000000
H    -1.431000000    -0.673000000    -2.053000000
C     0.337000000     0.491000000    -1.457000000
C     0.662000000     0.980000000    -2.907000000
O     1.792000000     1.418000000    -3.107000000
O    -0.140000000     0.891000000    -3.781000000
O     5.172000000    -1.911000000    -0.877000000
H     5.823000000    -2.611000000    -0.930000000
H     4.332000000    -2.368000000    -0.834000000
O    -0.806000000     3.092000000     2.844000000
H    -1.756000000     3.155000000     2.948000000
H    -0.452000000     3.662000000     3.526000000
O     0.917000000     2.178000000     5.731000000
H     0.632000000     2.211000000     6.644000000
H     0.253000000     1.647000000     5.291000000
O    -0.276000000    -0.662000000     5.270000000
H    -0.516000000    -0.394000000     6.157000000
H    -0.652000000    -1.537000000     5.173000000
O    -2.356000000     2.716000000     0.375000000
H    -2.874000000     3.513000000     0.484000000
H    -1.735000000     2.732000000     1.103000000
O    -6.269000000     1.404000000     1.847000000
H    -5.562000000     1.067000000     1.297000000
H    -6.606000000     2.161000000     1.367000000
O     5.230000000     5.370000000    -2.556000000
H     4.761000000     5.371000000    -3.390000000
H     4.688000000     4.834000000    -1.977000000
O    -2.420000000     1.592000000    -6.031000000
H    -1.991000000     0.878000000    -5.560000000
H    -2.793000000     2.143000000    -5.342000000
O     1.101000000     5.501000000     0.954000000
H     0.757000000     4.613000000     1.054000000
H     0.559000000     5.892000000     0.269000000
O    -5.018000000    -1.608000000     2.445000000
H    -4.569000000    -0.943000000     2.966000000
H    -4.456000000    -2.381000000     2.507000000
O    -4.159000000     3.249000000    -4.256000000
H    -3.605000000     2.953000000    -3.533000000
H    -4.910000000     3.661000000    -3.829000000
O     0.173000000     0.897000000    -7.915000000
H     0.501000000     1.768000000    -8.140000000
H     0.956000000     0.347000000    -7.883000000
O    -5.498000000    -3.765000000    -1.872000000
H    -5.282000000    -4.030000000    -2.766000000
H    -5.100000000    -2.900000000    -1.776000000
O    -4.650000000    -0.725000000     5.551000000
H    -4.669000000    -1.222000000     6.369000000
H    -3.793000000    -0.297000000     5.550000000
O    -3.094000000     2.106000000     6.490000000
H    -2.584000000     2.892000000     6.294000000
H    -3.969000000     2.433000000     6.698000000
O    -0.718000000     4.720000000    -3.025000000
H    -0.490000000     4.491000000    -3.926000000
H    -1.541000000     4.260000000    -2.862000000
O     2.386000000     2.963000000    -7.797000000
H     2.919000000     2.192000000    -7.993000000
H     2.435000000     3.051000000    -6.845000000
O    -1.631000000     0.120000000     7.411000000
H    -1.209000000     0.456000000     8.202000000
H    -2.120000000     0.866000000     7.066000000
O     1.036000000    -3.537000000    -3.315000000
H     1.138000000    -4.422000000    -3.666000000
H     0.425000000    -3.639000000    -2.585000000
O    -0.471000000    -3.828000000    -1.009000000
H    -0.789000000    -3.045000000    -0.560000000
H    -0.825000000    -4.557000000    -0.499000000
O    -0.372000000     3.593000000    -5.606000000
H     0.459000000     3.207000000    -5.329000000
H    -0.928000000     2.842000000    -5.812000000
O    -3.868000000    -4.394000000     0.294000000
H    -4.717000000    -4.402000000    -0.149000000
H    -3.409000000    -5.158000000    -0.055000000
O     3.243000000    -2.361000000    -4.457000000
H     3.681000000    -3.192000000    -4.642000000
H     2.464000000    -2.607000000    -3.957000000
O     2.144000000    -2.820000000     1.205000000
H     2.012000000    -2.286000000     0.422000000
H     1.260000000    -2.978000000     1.538000000
O     5.127000000    -0.556000000    -4.238000000
H     4.507000000    -1.219000000    -3.937000000
H     5.151000000     0.089000000    -3.531000000
O    -0.259000000    -1.528000000    -4.720000000
H    -0.220000000    -0.677000000    -4.284000000
H     0.198000000    -2.123000000    -4.124000000
O     3.677000000    -4.223000000     2.998000000
H     3.493000000    -3.710000000     2.212000000
H     3.104000000    -3.849000000     3.668000000
O    -1.157000000    -5.864000000     0.416000000
H    -1.447000000    -6.766000000     0.547000000
H    -0.733000000    -5.626000000     1.241000000
O    -2.184000000     2.232000000    -2.533000000
H    -1.453000000     1.711000000    -2.866000000
H    -2.158000000     2.101000000    -1.585000000
O     4.917000000    -0.030000000     1.811000000
H     4.195000000    -0.449000000     2.278000000
H     4.493000000     0.609000000     1.239000000
O    -4.361000000    -2.035000000    -4.337000000
H    -4.627000000    -2.449000000    -5.159000000
H    -4.702000000    -1.143000000    -4.397000000
O    -3.822000000     0.406000000     0.956000000
H    -3.332000000     0.027000000     1.685000000
H    -3.189000000     0.965000000     0.506000000
O    -4.227000000    -4.166000000     2.975000000
H    -4.148000000    -4.206000000     2.022000000
H    -4.956000000    -4.751000000     3.180000000
O     5.789000000     0.537000000    -1.509000000
H     5.420000000     1.212000000    -0.940000000
H     5.406000000    -0.280000000    -1.190000000
O     2.565000000    -0.005000000    -6.624000000
H     2.545000000    -0.579000000    -5.858000000
H     2.600000000     0.879000000    -6.259000000
O     2.623000000     2.798000000    -5.118000000
H     3.497000000     3.040000000    -4.812000000
H     2.261000000     2.264000000    -4.411000000
O    -3.663000000     3.231000000     3.504000000
H    -3.574000000     3.862000000     4.217000000
H    -4.158000000     3.698000000     2.831000000
O    -1.857000000    -0.990000000    -6.933000000
H    -1.210000000    -1.248000000    -6.276000000
H    -1.526000000    -0.162000000    -7.281000000
O    -2.518000000     0.145000000     3.331000000
H    -1.660000000    -0.097000000     3.680000000
H    -2.681000000     1.020000000     3.683000000
O    -5.251000000    -0.961000000    -1.002000000
H    -5.805000000    -0.199000000    -1.175000000
H    -4.614000000    -0.652000000    -0.358000000
O    -1.960000000    -2.805000000     4.834000000
H    -2.624000000    -2.825000000     4.145000000
H    -2.229000000    -3.491000000     5.445000000
O     2.837000000    -1.173000000     3.543000000
H     2.470000000    -1.705000000     2.838000000
H     2.096000000    -1.001000000     4.125000000
O     4.397000000     2.737000000    -0.329000000
H     3.842000000     3.171000000    -0.977000000
H     4.055000000     3.032000000     0.515000000
O     3.483000000     4.172000000     1.812000000
H     2.824000000     4.838000000     1.617000000
H     3.122000000     3.687000000     2.554000000
O    -0.452000000    -3.643000000     2.426000000
H    -0.689000000    -4.570000000     2.462000000
H    -0.783000000    -3.280000000     3.247000000
O    -1.965000000    -3.609000000    -4.842000000
H    -2.792000000    -3.126000000    -4.862000000
H    -1.295000000    -2.943000000    -4.992000000
O     3.074000000     2.704000000     4.071000000
H     3.786000000     2.159000000     4.405000000
H     2.298000000     2.400000000     4.542000000
O     2.670000000     3.847000000    -2.112000000
H     2.291000000     3.202000000    -2.710000000
H     2.263000000     4.676000000    -2.365000000
