158
-3067.54249
C     1.109000000     0.448000000     0.828000000
H     1.909000000     0.949000000     1.367000000
C     0.916000000     0.744000000    -0.483000000
H     1.699000000     1.331000000    -0.956000000
C    -0.242000000     0.321000000    -1.146000000
H    -0.475000000     0.579000000    -2.179000000
C    -1.196000000    -0.446000000    -0.509000000
H    -2.048000000    -0.842000000    -1.056000000
C    -0.922000000    -0.801000000     0.815000000
H    -1.665000000    -1.460000000     1.257000000
C     0.173000000    -0.279000000     1.541000000
C     0.533000000    -0.746000000     2.920000000
O    -0.028000000    -1.723000000     3.383000000
O     1.440000000    -0.163000000     3.528000000
O     1.060000000     4.601000000    -3.823000000
H     0.905000000     5.236000000    -4.523000000
H     0.608000000     4.967000000    -3.063000000
O     1.462000000     1.849000000    -3.856000000
H     0.923000000     1.640000000    -4.619000000
H     1.490000000     2.806000000    -3.837000000
O     3.528000000     1.379000000     3.706000000
H     2.718000000     0.870000000     3.726000000
H     4.125000000     0.903000000     4.284000000
O    -0.588000000    -6.381000000     4.615000000
H     0.339000000    -6.250000000     4.816000000
H    -0.727000000    -5.894000000     3.802000000
O     1.256000000    -0.646000000     7.955000000
H     1.361000000     0.046000000     7.302000000
H     0.495000000    -0.377000000     8.469000000
O     5.194000000    -0.545000000    -3.964000000
H     4.807000000    -0.102000000    -3.209000000
H     6.090000000    -0.745000000    -3.691000000
O    -3.353000000     4.936000000    -0.318000000
H    -3.501000000     4.582000000    -1.195000000
H    -3.498000000     4.194000000     0.267000000
O     5.100000000    -0.341000000     5.190000000
H     5.905000000    -0.155000000     4.707000000
H     5.262000000     0.003000000     6.068000000
O     2.836000000     0.861000000    -7.340000000
H     2.447000000     0.053000000    -7.676000000
H     2.244000000     1.140000000    -6.642000000
O     2.508000000     3.977000000     3.412000000
H     2.986000000     3.155000000     3.295000000
H     1.682000000     3.841000000     2.948000000
O     2.027000000    -2.620000000    -2.205000000
H     2.117000000    -2.097000000    -1.408000000
H     2.089000000    -1.983000000    -2.917000000
O     3.361000000    -3.345000000     6.597000000
H     2.835000000    -2.625000000     6.945000000
H     3.122000000    -4.099000000     7.135000000
O     2.790000000    -4.791000000     3.021000000
H     2.502000000    -5.216000000     3.829000000
H     3.071000000    -3.918000000     3.295000000
O    -1.959000000     3.117000000     3.011000000
H    -2.604000000     3.767000000     3.288000000
H    -2.286000000     2.798000000     2.170000000
O    -3.084000000    -4.291000000    -1.487000000
H    -3.136000000    -4.514000000    -2.416000000
H    -2.159000000    -4.400000000    -1.266000000
O     0.421000000    -2.556000000    -5.853000000
H     0.754000000    -2.446000000    -4.962000000
H    -0.415000000    -2.091000000    -5.856000000
O     4.851000000     1.040000000     1.118000000
H     5.648000000     1.485000000     1.406000000
H     4.338000000     0.927000000     1.918000000
O    -3.034000000    -2.209000000     3.622000000
H    -3.054000000    -2.900000000     2.960000000
H    -2.113000000    -1.957000000     3.678000000
O     5.012000000     4.725000000    -0.471000000
H     4.174000000     4.979000000    -0.858000000
H     4.928000000     3.785000000    -0.315000000
O    -0.037000000     5.772000000    -1.745000000
H    -0.289000000     5.951000000    -0.839000000
H     0.136000000     6.635000000    -2.121000000
O    -2.249000000     5.141000000    -3.865000000
H    -1.725000000     5.284000000    -3.076000000
H    -2.911000000     5.832000000    -3.840000000
O     2.354000000    -0.890000000    -4.294000000
H     1.839000000    -0.104000000    -4.110000000
H     3.092000000    -0.576000000    -4.817000000
O    -2.575000000     2.387000000     0.473000000
H    -2.524000000     2.549000000    -0.470000000
H    -2.789000000     1.457000000     0.545000000
O    -0.816000000    -2.877000000    -3.399000000
H    -0.873000000    -3.805000000    -3.625000000
H    -0.496000000    -2.869000000    -2.497000000
O    -2.627000000    -1.200000000     7.272000000
H    -2.078000000    -1.672000000     6.646000000
H    -2.640000000    -1.759000000     8.049000000
O    -4.406000000    -0.891000000     1.470000000
H    -4.040000000    -1.440000000     2.163000000
H    -4.871000000    -1.504000000     0.900000000
O    -5.100000000    -2.562000000    -0.749000000
H    -4.253000000    -2.999000000    -0.844000000
H    -5.725000000    -3.276000000    -0.626000000
O     1.204000000     0.844000000     5.855000000
H     1.229000000     0.384000000     5.016000000
H     0.442000000     1.420000000     5.789000000
O     0.115000000    -4.444000000     2.552000000
H     1.054000000    -4.582000000     2.429000000
H     0.012000000    -3.492000000     2.555000000
O     0.163000000     1.108000000    -6.596000000
H    -0.357000000     0.403000000    -6.981000000
H    -0.403000000     1.878000000    -6.646000000
O     0.268000000    -2.735000000     5.985000000
H     0.233000000    -2.686000000     5.030000000
H     0.718000000    -1.933000000     6.250000000
O    -5.104000000     1.689000000     2.014000000
H    -4.891000000     0.756000000     2.010000000
H    -5.303000000     1.893000000     1.100000000
O    -0.928000000     2.503000000     5.601000000
H    -1.731000000     2.490000000     6.122000000
H    -1.229000000     2.618000000     4.700000000
O    -1.744000000     2.944000000    -5.683000000
H    -1.756000000     3.694000000    -5.088000000
H    -2.595000000     2.524000000    -5.556000000
O    -1.179000000    -4.988000000     6.837000000
H    -1.102000000    -5.454000000     6.005000000
H    -0.717000000    -4.162000000     6.694000000
O    -2.779000000    -4.269000000     1.821000000
H    -1.919000000    -4.681000000     1.735000000
H    -3.342000000    -4.763000000     1.225000000
O     3.646000000     1.721000000    -2.447000000
H     2.740000000     1.697000000    -2.753000000
H     3.681000000     1.068000000    -1.748000000
O     4.241000000    -2.486000000     1.002000000
H     3.687000000    -2.215000000     1.734000000
H     5.134000000    -2.416000000     1.339000000
O    -2.944000000     2.549000000    -2.187000000
H    -2.253000000     2.858000000    -2.773000000
H    -3.758000000     2.811000000    -2.616000000
O     0.159000000     3.301000000     1.183000000
H     0.172000000     2.488000000     0.677000000
H    -0.650000000     3.253000000     1.692000000
O     3.007000000     2.121000000     7.494000000
H     3.276000000     2.966000000     7.133000000
H     2.591000000     1.669000000     6.759000000
O     5.469000000     2.881000000    -4.192000000
H     4.866000000     2.341000000    -3.681000000
H     6.243000000     2.967000000    -3.635000000
O    -6.708000000    -1.041000000    -2.616000000
H    -6.750000000    -1.916000000    -3.001000000
H    -6.214000000    -1.160000000    -1.805000000
O     3.324000000    -2.115000000     3.535000000
H     3.966000000    -1.964000000     4.229000000
H     2.616000000    -1.500000000     3.727000000
O    -3.099000000    -1.206000000    -4.188000000
H    -3.581000000    -1.166000000    -3.362000000
H    -2.522000000    -1.963000000    -4.093000000
O    -0.347000000    -4.482000000    -0.853000000
H     0.308000000    -3.867000000    -0.522000000
H     0.105000000    -5.325000000    -0.876000000
O     0.267000000     6.063000000     0.996000000
H     0.295000000     5.107000000     0.984000000
H     0.308000000     6.293000000     1.925000000
O     4.394000000    -0.562000000    -1.002000000
H     4.216000000    -1.269000000    -0.383000000
H     4.699000000     0.164000000    -0.457000000
