158
-3044.52420
C     1.018000000     0.595000000     0.903000000
H     1.762000000     0.766000000     1.677000000
C     0.076000000    -0.338000000     1.253000000
H     0.086000000    -0.743000000     2.262000000
C    -0.897000000    -0.733000000     0.346000000
H    -1.569000000    -1.520000000     0.552000000
C    -0.835000000    -0.240000000    -0.961000000
H    -1.484000000    -0.629000000    -1.741000000
C     0.158000000     0.680000000    -1.325000000
H     0.185000000     1.020000000    -2.357000000
C     1.116000000     1.093000000    -0.406000000
C     2.321000000     1.833000000    -0.808000000
O     2.418000000     2.033000000    -2.009000000
O     3.116000000     2.308000000     0.067000000
O    -3.422000000    -0.456000000     3.160000000
H    -3.908000000    -0.634000000     2.355000000
H    -2.875000000    -1.232000000     3.285000000
O     1.016000000    -2.059000000    -2.283000000
H     1.225000000    -2.768000000    -1.674000000
H     0.317000000    -1.570000000    -1.850000000
O    -3.664000000    -0.807000000     5.787000000
H    -4.151000000    -1.630000000     5.755000000
H    -3.534000000    -0.571000000     4.868000000
O    -1.387000000    -0.426000000    -4.612000000
H    -2.037000000    -1.128000000    -4.626000000
H    -1.901000000     0.375000000    -4.517000000
O     1.432000000     6.385000000    -1.741000000
H     1.194000000     5.963000000    -0.915000000
H     0.991000000     7.234000000    -1.712000000
O    -1.404000000    -2.851000000     3.460000000
H    -1.254000000    -3.514000000     4.133000000
H    -2.200000000    -3.139000000     3.013000000
O    -3.698000000     1.385000000    -4.331000000
H    -3.754000000     1.877000000    -3.512000000
H    -3.682000000     2.056000000    -5.013000000
O     4.948000000     0.266000000     1.583000000
H     4.526000000     1.005000000     1.144000000
H     5.415000000    -0.192000000     0.886000000
O    -6.687000000    -3.043000000     3.316000000
H    -7.089000000    -3.670000000     2.715000000
H    -6.260000000    -2.404000000     2.745000000
O    -4.253000000    -5.299000000     4.815000000
H    -4.890000000    -4.675000000     5.164000000
H    -3.586000000    -4.752000000     4.399000000
O     0.496000000     5.120000000     0.232000000
H     1.129000000     4.769000000     0.859000000
H    -0.339000000     5.100000000     0.698000000
O     3.604000000    -2.040000000     2.459000000
H     3.597000000    -1.798000000     3.385000000
H     3.961000000    -1.272000000     2.013000000
O     1.526000000     4.173000000    -3.653000000
H     1.968000000     3.512000000    -3.120000000
H     1.222000000     4.825000000    -3.021000000
O    -1.350000000    -6.426000000     0.424000000
H    -1.739000000    -6.055000000    -0.367000000
H    -0.683000000    -5.791000000     0.684000000
O     2.824000000    -0.237000000    -3.253000000
H     2.364000000     0.602000000    -3.224000000
H     2.216000000    -0.858000000    -2.852000000
O     5.496000000     1.801000000    -2.197000000
H     5.492000000     2.270000000    -3.031000000
H     4.572000000     1.745000000    -1.950000000
O    -4.086000000     2.860000000    -1.878000000
H    -3.345000000     2.318000000    -1.607000000
H    -4.169000000     3.516000000    -1.186000000
O     6.145000000    -0.378000000    -0.712000000
H     6.955000000    -0.693000000    -1.113000000
H     5.991000000     0.474000000    -1.120000000
O     3.772000000    -1.409000000     5.046000000
H     3.625000000    -1.499000000     5.987000000
H     4.653000000    -1.041000000     4.975000000
O     2.221000000    -2.827000000     0.448000000
H     2.641000000    -2.583000000     1.273000000
H     2.594000000    -2.227000000    -0.198000000
O    -1.300000000     2.268000000     5.025000000
H    -1.534000000     2.379000000     5.946000000
H    -0.660000000     1.556000000     5.025000000
O     4.180000000     5.630000000     2.849000000
H     3.679000000     4.919000000     3.250000000
H     4.138000000     6.342000000     3.487000000
O    -3.139000000     2.419000000     3.117000000
H    -3.399000000     1.515000000     3.293000000
H    -2.322000000     2.532000000     3.602000000
O     6.043000000    -0.392000000     4.273000000
H     6.785000000     0.211000000     4.318000000
H     5.790000000    -0.391000000     3.350000000
O     2.100000000     3.903000000     2.011000000
H     1.774000000     3.215000000     2.591000000
H     2.494000000     3.430000000     1.277000000
O    -4.552000000    -6.099000000     1.592000000
H    -3.770000000    -6.567000000     1.885000000
H    -4.676000000    -6.383000000     0.687000000
O     3.965000000    -1.643000000    -1.227000000
H     4.774000000    -1.273000000    -0.875000000
H     3.934000000    -1.336000000    -2.133000000
O    -3.677000000    -3.460000000     2.106000000
H    -4.018000000    -4.292000000     1.777000000
H    -4.283000000    -2.802000000     1.765000000
O    -3.117000000    -2.990000000    -4.907000000
H    -2.361000000    -3.304000000    -4.412000000
H    -3.392000000    -3.744000000    -5.429000000
O     2.889000000     2.031000000     5.331000000
H     3.639000000     2.027000000     4.736000000
H     3.275000000     1.943000000     6.203000000
O     0.917000000     5.073000000    -6.145000000
H     1.086000000     4.373000000    -6.776000000
H     1.473000000     4.859000000    -5.396000000
O     0.009000000    -6.556000000     3.574000000
H     0.680000000    -6.447000000     2.900000000
H    -0.275000000    -5.664000000     3.775000000
O    -5.034000000    -0.839000000    -5.457000000
H    -4.452000000    -1.359000000    -4.902000000
H    -4.804000000     0.069000000    -5.259000000
O    -2.221000000    -5.813000000    -2.077000000
H    -2.339000000    -4.998000000    -2.565000000
H    -1.528000000    -6.276000000    -2.549000000
O     4.984000000     4.258000000     0.191000000
H     4.913000000     4.609000000     1.079000000
H     4.385000000     3.511000000     0.181000000
O     0.354000000    -0.161000000    -6.700000000
H     1.000000000    -0.867000000    -6.708000000
H    -0.198000000    -0.349000000    -5.941000000
O    -0.746000000    -3.575000000    -3.865000000
H    -0.181000000    -2.916000000    -4.266000000
H    -0.242000000    -3.901000000    -3.119000000
O     4.320000000     6.155000000    -1.408000000
H     4.446000000     5.332000000    -0.935000000
H     3.457000000     6.069000000    -1.814000000
O    -4.631000000    -6.611000000    -1.027000000
H    -4.863000000    -6.999000000    -1.871000000
H    -3.741000000    -6.282000000    -1.151000000
O    -5.500000000     1.001000000     0.787000000
H    -4.719000000     1.229000000     0.283000000
H    -5.876000000     1.844000000     1.040000000
O    -5.502000000    -1.545000000     1.298000000
H    -5.451000000    -0.608000000     1.110000000
H    -6.146000000    -1.880000000     0.674000000
O     7.586000000     4.088000000    -0.183000000
H     7.841000000     4.837000000     0.356000000
H     6.630000000     4.076000000    -0.140000000
O     0.863000000     0.441000000     5.063000000
H     1.264000000    -0.304000000     4.616000000
H     1.486000000     1.157000000     4.942000000
O     3.346000000     0.263000000    -5.992000000
H     3.005000000    -0.462000000    -6.516000000
H     3.191000000    -0.002000000    -5.086000000
O     0.605000000     2.492000000    -6.688000000
H     1.204000000     2.674000000    -5.964000000
H     0.630000000     1.541000000    -6.787000000
O     5.694000000    -0.791000000    -3.459000000
H     5.868000000     0.150000000    -3.479000000
H     6.472000000    -1.187000000    -3.850000000
O    -2.671000000     1.719000000     0.502000000
H    -2.605000000     2.077000000     1.387000000
H    -2.161000000     0.910000000     0.531000000
O     0.149000000    -4.313000000     1.476000000
H    -0.254000000    -3.619000000     1.998000000
H     0.974000000    -3.935000000     1.172000000
