158
-3041.69845
C     1.201000000     0.447000000     0.732000000
H     2.135000000     0.883000000     1.077000000
C     0.901000000     0.660000000    -0.602000000
H     1.633000000     1.262000000    -1.135000000
C    -0.230000000     0.266000000    -1.187000000
H    -0.352000000     0.284000000    -2.278000000
C    -1.068000000    -0.553000000    -0.463000000
H    -1.873000000    -1.034000000    -1.012000000
C    -0.895000000    -0.699000000     0.933000000
H    -1.526000000    -1.353000000     1.529000000
C     0.252000000    -0.204000000     1.561000000
C     0.545000000    -0.489000000     3.000000000
O    -0.277000000    -1.124000000     3.717000000
O     1.569000000    -0.015000000     3.485000000
O     3.224000000    -3.664000000     1.760000000
H     3.842000000    -4.232000000     2.220000000
H     3.360000000    -2.799000000     2.146000000
O     1.326000000     4.724000000    -1.505000000
H     1.987000000     4.409000000    -2.122000000
H     0.493000000     4.441000000    -1.881000000
O     1.111000000    -1.542000000    -7.118000000
H     0.782000000    -0.750000000    -7.544000000
H     0.913000000    -1.414000000    -6.190000000
O     3.134000000     3.046000000    -3.163000000
H     3.874000000     2.935000000    -2.565000000
H     3.278000000     2.391000000    -3.846000000
O     2.286000000     2.535000000     3.613000000
H     2.135000000     1.589000000     3.633000000
H     1.566000000     2.881000000     3.085000000
O    -2.419000000     0.960000000    -4.270000000
H    -2.668000000     1.770000000    -3.824000000
H    -3.246000000     0.596000000    -4.585000000
O     1.960000000     1.976000000     7.224000000
H     1.448000000     1.794000000     8.012000000
H     1.827000000     1.208000000     6.668000000
O    -2.778000000     4.929000000     0.049000000
H    -3.430000000     5.229000000     0.682000000
H    -2.543000000     4.049000000     0.346000000
O    -1.027000000    -0.702000000     8.308000000
H    -1.258000000    -1.505000000     7.840000000
H    -0.192000000    -0.433000000     7.923000000
O     4.477000000     3.263000000     4.970000000
H     3.780000000     2.987000000     4.375000000
H     4.658000000     2.489000000     5.503000000
O     3.296000000     1.081000000    -5.432000000
H     2.969000000     1.333000000    -6.296000000
H     2.976000000     0.188000000    -5.306000000
O     3.711000000     6.110000000     1.955000000
H     3.254000000     6.619000000     1.285000000
H     3.553000000     5.198000000     1.712000000
O    -1.002000000    -1.124000000    -5.414000000
H    -1.645000000    -1.073000000    -6.120000000
H    -1.455000000    -0.765000000    -4.651000000
O     1.261000000     4.441000000    -4.458000000
H     2.161000000     4.333000000    -4.152000000
H     0.963000000     3.551000000    -4.646000000
O     4.581000000     1.749000000    -1.151000000
H     3.858000000     1.643000000    -0.532000000
H     5.325000000     1.321000000    -0.726000000
O    -2.182000000    -3.360000000     7.556000000
H    -1.446000000    -3.605000000     6.994000000
H    -2.959000000    -3.594000000     7.048000000
O     2.052000000    -4.978000000     5.600000000
H     1.767000000    -5.265000000     6.467000000
H     1.286000000    -4.541000000     5.228000000
O     3.456000000    -2.352000000     6.406000000
H     3.675000000    -2.560000000     5.498000000
H     3.515000000    -3.190000000     6.865000000
O     1.921000000    -1.078000000    -4.250000000
H     2.794000000    -1.016000000    -3.863000000
H     1.429000000    -1.631000000    -3.644000000
O     3.114000000     3.581000000     0.341000000
H     2.278000000     3.479000000     0.795000000
H     2.886000000     4.004000000    -0.487000000
O     2.233000000     1.850000000    -7.709000000
H     2.563000000     2.719000000    -7.482000000
H     1.301000000     1.885000000    -7.497000000
O    -3.019000000    -0.879000000     4.098000000
H    -3.224000000    -1.813000000     4.145000000
H    -2.070000000    -0.849000000     3.971000000
O    -3.458000000    -2.491000000    -6.999000000
H    -3.010000000    -2.751000000    -6.195000000
H    -3.398000000    -3.260000000    -7.566000000
O     3.735000000    -1.388000000     2.927000000
H     4.444000000    -0.781000000     2.713000000
H     3.045000000    -0.831000000     3.289000000
O     4.475000000    -0.931000000    -3.002000000
H     4.440000000    -0.076000000    -2.574000000
H     4.442000000    -1.561000000    -2.281000000
O    -1.346000000     2.476000000     0.583000000
H    -1.177000000     1.789000000    -0.063000000
H    -2.101000000     2.159000000     1.078000000
O     1.033000000    -2.317000000    -1.934000000
H     0.640000000    -1.562000000    -1.497000000
H     0.471000000    -3.053000000    -1.694000000
O    -3.537000000     0.554000000     6.593000000
H    -3.016000000    -0.058000000     7.113000000
H    -3.064000000     0.628000000     5.765000000
O    -3.351000000     1.536000000     2.364000000
H    -3.426000000     1.144000000     3.234000000
H    -3.565000000     0.824000000     1.761000000
O    -5.040000000    -0.675000000     1.226000000
H    -5.048000000    -0.339000000     0.330000000
H    -5.137000000    -1.622000000     1.128000000
O    -0.836000000     1.455000000     5.628000000
H    -0.160000000     0.858000000     5.307000000
H    -0.387000000     2.294000000     5.729000000
O    -0.037000000    -4.308000000     3.355000000
H     0.269000000    -4.648000000     2.514000000
H    -0.065000000    -3.359000000     3.234000000
O    -0.056000000     2.147000000    -5.108000000
H     0.551000000     1.587000000    -4.625000000
H    -0.892000000     1.681000000    -5.071000000
O    -6.423000000    -0.823000000     3.463000000
H    -5.846000000    -0.808000000     2.699000000
H    -7.049000000    -0.116000000     3.303000000
O    -0.033000000    -2.905000000     5.969000000
H    -0.252000000    -2.423000000     5.172000000
H     0.770000000    -2.492000000     6.286000000
O    -0.163000000    -3.814000000    -5.245000000
H    -0.375000000    -2.928000000    -5.540000000
H     0.066000000    -3.709000000    -4.321000000
O    -0.105000000     4.742000000     4.818000000
H     0.702000000     4.665000000     5.327000000
H     0.145000000     4.480000000     3.932000000
O    -1.189000000     4.197000000    -2.861000000
H    -1.630000000     5.044000000    -2.803000000
H    -0.714000000     4.231000000    -3.692000000
O    -5.238000000    -2.495000000    -3.169000000
H    -5.268000000    -3.451000000    -3.144000000
H    -5.799000000    -2.256000000    -3.906000000
O    -1.187000000    -5.587000000     5.286000000
H    -0.630000000    -5.346000000     4.546000000
H    -2.067000000    -5.646000000     4.915000000
O     6.093000000     3.853000000     0.223000000
H     6.543000000     4.169000000     1.007000000
H     5.245000000     3.546000000     0.542000000
O    -3.527000000     2.517000000    -2.293000000
H    -2.850000000     3.093000000    -2.647000000
H    -4.110000000     3.102000000    -1.809000000
O     0.391000000     3.865000000     1.818000000
H    -0.276000000     3.338000000     1.378000000
H     0.071000000     4.765000000     1.747000000
O     3.861000000    -3.196000000    -1.480000000
H     2.958000000    -2.956000000    -1.689000000
H     3.841000000    -3.414000000    -0.548000000
O     1.551000000    -0.487000000     6.123000000
H     2.217000000    -1.173000000     6.156000000
H     1.304000000    -0.438000000     5.199000000
O    -4.960000000    -0.453000000    -1.456000000
H    -4.261000000     0.100000000    -1.807000000
H    -5.085000000    -1.131000000    -2.120000000
O    -0.415000000    -4.665000000    -0.993000000
H    -0.062000000    -5.052000000    -0.191000000
H     0.110000000    -5.049000000    -1.695000000
O     5.567000000     0.463000000     1.607000000
H     6.365000000     0.776000000     2.033000000
H     5.873000000     0.053000000     0.798000000
