158
-3042.76835
C    -0.309000000    -1.427000000    -0.281000000
H    -0.582000000    -2.426000000    -0.610000000
C    -0.647000000    -0.316000000    -1.110000000
H    -1.156000000    -0.529000000    -2.046000000
C    -0.331000000     0.929000000    -0.704000000
H    -0.567000000     1.791000000    -1.329000000
C     0.341000000     1.171000000     0.472000000
H     0.640000000     2.191000000     0.700000000
C     0.718000000     0.084000000     1.308000000
H     1.194000000     0.245000000     2.272000000
C     0.338000000    -1.220000000     0.973000000
C     0.701000000    -2.355000000     1.876000000
O     0.848000000    -3.471000000     1.447000000
O     0.895000000    -2.074000000     3.091000000
O     4.518000000    -5.205000000    -1.631000000
H     4.694000000    -5.841000000    -0.938000000
H     3.860000000    -4.619000000    -1.258000000
O     0.952000000    -3.187000000     6.252000000
H     0.649000000    -3.990000000     5.828000000
H     0.192000000    -2.873000000     6.743000000
O     4.129000000    -6.083000000     4.332000000
H     3.491000000    -5.372000000     4.272000000
H     4.250000000    -6.372000000     3.427000000
O    -0.321000000     3.304000000    -4.020000000
H    -0.738000000     3.988000000    -4.543000000
H     0.449000000     3.727000000    -3.641000000
O    -2.013000000     2.705000000     2.432000000
H    -2.156000000     2.052000000     1.747000000
H    -2.891000000     3.014000000     2.655000000
O     3.080000000    -3.471000000    -0.065000000
H     2.950000000    -2.746000000    -0.677000000
H     2.442000000    -3.315000000     0.631000000
O    -0.629000000    -0.111000000    -7.167000000
H    -0.612000000     0.426000000    -6.375000000
H    -1.459000000    -0.585000000    -7.118000000
O     2.535000000    -5.367000000     6.702000000
H     1.712000000    -5.616000000     7.125000000
H     2.300000000    -4.631000000     6.137000000
O     3.539000000     2.664000000    -4.905000000
H     3.501000000     2.356000000    -3.999000000
H     4.474000000     2.735000000    -5.095000000
O    -1.513000000    -4.436000000     3.153000000
H    -1.142000000    -5.091000000     2.562000000
H    -0.923000000    -3.686000000     3.080000000
O    -4.599000000    -1.871000000    -0.128000000
H    -4.774000000    -2.748000000    -0.468000000
H    -4.328000000    -2.015000000     0.779000000
O     1.224000000    -0.245000000    -3.784000000
H     1.708000000     0.436000000    -3.317000000
H     1.902000000    -0.785000000    -4.190000000
O    -1.031000000     5.427000000     2.296000000
H    -0.328000000     5.454000000     1.647000000
H    -1.265000000     4.501000000     2.358000000
O     2.446000000     1.878000000    -2.303000000
H     2.356000000     1.240000000    -1.595000000
H     1.966000000     2.647000000    -1.996000000
O     5.404000000    -1.894000000     3.001000000
H     5.858000000    -2.734000000     3.067000000
H     4.796000000    -1.892000000     3.741000000
O     4.560000000     1.239000000     1.166000000
H     5.041000000     2.051000000     1.326000000
H     3.992000000     1.143000000     1.931000000
O    -0.555000000    -5.407000000     5.567000000
H    -0.964000000    -4.920000000     6.283000000
H    -0.950000000    -5.045000000     4.774000000
O     2.993000000     1.474000000     3.401000000
H     3.544000000     2.148000000     3.799000000
H     2.209000000     1.944000000     3.115000000
O    -3.224000000    -2.306000000     2.992000000
H    -2.836000000    -3.147000000     3.234000000
H    -4.015000000    -2.244000000     3.529000000
O    -0.297000000    -2.512000000    -4.736000000
H     0.404000000    -3.050000000    -5.103000000
H     0.157000000    -1.789000000    -4.302000000
O    -6.128000000     3.674000000    -2.438000000
H    -5.191000000     3.484000000    -2.381000000
H    -6.185000000     4.626000000    -2.359000000
O    -0.198000000     7.460000000    -2.731000000
H    -0.361000000     7.887000000    -3.572000000
H     0.107000000     6.583000000    -2.963000000
O    -1.536000000     4.159000000    -0.471000000
H    -1.922000000     3.317000000    -0.711000000
H    -0.602000000     4.056000000    -0.657000000
O     2.134000000    -4.411000000     3.705000000
H     1.735000000    -3.547000000     3.813000000
H     2.126000000    -4.561000000     2.759000000
O     0.106000000     2.164000000     3.833000000
H    -0.027000000     1.241000000     4.049000000
H    -0.658000000     2.399000000     3.307000000
O     0.432000000    -5.961000000     1.496000000
H     0.506000000    -5.012000000     1.390000000
H    -0.253000000    -6.218000000     0.879000000
O     5.549000000     3.046000000    -0.928000000
H     5.667000000     3.608000000    -0.162000000
H     4.860000000     2.433000000    -0.672000000
O     2.897000000    -1.178000000     7.201000000
H     2.349000000    -1.770000000     6.685000000
H     3.382000000    -0.672000000     6.549000000
O     1.295000000    -4.839000000    -1.850000000
H     1.991000000    -5.189000000    -2.405000000
H     1.749000000    -4.280000000    -1.220000000
O     3.763000000     4.456000000     1.359000000
H     4.468000000     4.443000000     2.006000000
H     2.961000000     4.486000000     1.880000000
O    -2.850000000    -2.306000000    -6.191000000
H    -2.546000000    -2.269000000    -5.284000000
H    -2.134000000    -2.728000000    -6.666000000
O    -3.254000000     3.395000000    -4.097000000
H    -2.338000000     3.322000000    -4.368000000
H    -3.533000000     2.491000000    -3.951000000
O    -2.797000000     0.172000000     1.096000000
H    -1.852000000     0.063000000     0.990000000
H    -3.033000000    -0.447000000     1.786000000
O     3.104000000    -0.989000000     4.408000000
H     2.318000000    -1.426000000     4.079000000
H     3.067000000    -0.112000000     4.028000000
O    -3.911000000     1.777000000    -0.963000000
H    -3.520000000     1.145000000    -0.360000000
H    -4.044000000     1.286000000    -1.773000000
O    -0.578000000    -7.032000000    -1.272000000
H    -0.255000000    -7.816000000    -1.715000000
H    -0.469000000    -6.332000000    -1.916000000
O    -1.194000000     0.842000000    -4.511000000
H    -0.941000000     1.739000000    -4.291000000
H    -0.522000000     0.297000000    -4.100000000
O    -0.851000000    -0.720000000     4.268000000
H    -1.551000000    -1.267000000     3.910000000
H    -0.051000000    -1.222000000     4.113000000
O    -1.050000000     0.157000000     6.790000000
H    -1.483000000     1.005000000     6.694000000
H    -1.014000000    -0.197000000     5.902000000
O     1.525000000     4.086000000     2.756000000
H     0.948000000     3.507000000     3.254000000
H     1.333000000     4.962000000     3.092000000
O    -3.221000000    -1.987000000    -2.545000000
H    -2.948000000    -2.900000000    -2.636000000
H    -3.663000000    -1.953000000    -1.696000000
O    -1.479000000    -4.342000000    -2.793000000
H    -0.777000000    -4.334000000    -2.141000000
H    -1.088000000    -3.944000000    -3.570000000
O    -4.815000000     3.592000000     1.127000000
H    -4.459000000     4.350000000     0.663000000
H    -5.090000000     2.994000000     0.432000000
O    -3.783000000     0.510000000    -3.409000000
H    -2.940000000     0.596000000    -3.854000000
H    -3.890000000    -0.432000000    -3.278000000
O     2.454000000    -7.610000000     1.148000000
H     2.536000000    -7.784000000     0.211000000
H     1.770000000    -6.944000000     1.209000000
O    -3.844000000     5.951000000    -0.247000000
H    -3.084000000     5.377000000    -0.343000000
H    -3.493000000     6.748000000     0.149000000
O     1.252000000     4.113000000    -0.830000000
H     1.401000000     4.961000000    -1.249000000
H     2.056000000     3.945000000    -0.338000000
O     1.537000000     5.479000000    -3.691000000
H     2.287000000     5.631000000    -3.117000000
H     1.919000000     5.379000000    -4.563000000
