158
-3030.45076
C     1.339000000    -0.659000000     0.397000000
H     2.302000000    -1.074000000     0.682000000
C     0.890000000     0.567000000     0.910000000
H     1.395000000     1.188000000     1.645000000
C    -0.423000000     1.060000000     0.512000000
H    -0.791000000     2.009000000     0.926000000
C    -1.184000000     0.322000000    -0.473000000
H    -2.220000000     0.625000000    -0.599000000
C    -0.635000000    -0.830000000    -1.025000000
H    -1.238000000    -1.434000000    -1.700000000
C     0.615000000    -1.306000000    -0.605000000
C     1.100000000    -2.618000000    -1.211000000
O     2.283000000    -2.811000000    -1.296000000
O     0.342000000    -3.389000000    -1.802000000
O    -5.498000000     4.965000000    -0.744000000
H    -5.699000000     4.030000000    -0.731000000
H    -4.657000000     5.035000000    -0.293000000
O     2.227000000    -2.300000000     5.177000000
H     1.365000000    -2.679000000     5.349000000
H     2.099000000    -1.357000000     5.281000000
O    -3.855000000    -1.740000000    -0.778000000
H    -4.127000000    -1.766000000    -1.695000000
H    -3.481000000    -2.606000000    -0.614000000
O     0.149000000     4.594000000     1.742000000
H     0.541000000     5.451000000     1.574000000
H     0.381000000     4.070000000     0.976000000
O     3.994000000     0.941000000     4.477000000
H     3.313000000     0.990000000     5.148000000
H     4.427000000     1.794000000     4.512000000
O    -2.802000000     1.554000000     3.232000000
H    -3.071000000     2.424000000     2.937000000
H    -2.757000000     1.627000000     4.185000000
O    -2.393000000     3.656000000    -2.496000000
H    -1.575000000     3.203000000    -2.295000000
H    -2.664000000     4.042000000    -1.663000000
O     5.415000000     0.367000000     2.303000000
H     4.810000000     0.601000000     3.007000000
H     5.400000000    -0.590000000     2.284000000
O     5.039000000     3.101000000     0.600000000
H     5.498000000     2.623000000     1.290000000
H     4.804000000     3.937000000     1.003000000
O    -0.978000000    -3.232000000     2.775000000
H    -1.298000000    -2.412000000     3.151000000
H    -0.340000000    -2.960000000     2.116000000
O    -2.239000000    -4.240000000    -0.786000000
H    -1.368000000    -4.056000000    -1.137000000
H    -2.092000000    -4.915000000    -0.123000000
O     2.220000000     3.168000000    -0.035000000
H     1.910000000     2.314000000     0.268000000
H     3.174000000     3.095000000    -0.021000000
O     1.070000000    -1.541000000    -6.676000000
H     1.902000000    -1.175000000    -6.377000000
H     0.725000000    -2.004000000    -5.912000000
O    -2.694000000     4.590000000    -0.028000000
H    -2.483000000     5.523000000    -0.011000000
H    -2.538000000     4.292000000     0.868000000
O    -3.161000000    -5.381000000    -3.178000000
H    -3.029000000    -4.904000000    -2.359000000
H    -4.104000000    -5.544000000    -3.211000000
O    -5.937000000     2.087000000    -0.696000000
H    -6.754000000     1.593000000    -0.630000000
H    -5.284000000     1.529000000    -0.272000000
O    -1.670000000    -1.002000000     4.089000000
H    -2.581000000    -1.219000000     4.287000000
H    -1.695000000    -0.079000000     3.836000000
O    -6.294000000    -1.456000000     0.393000000
H    -5.394000000    -1.508000000     0.072000000
H    -6.331000000    -0.624000000     0.865000000
O     0.390000000     3.805000000    -4.027000000
H     0.755000000     3.067000000    -3.539000000
H     0.681000000     3.664000000    -4.928000000
O     1.796000000    -3.797000000     2.627000000
H     1.129000000    -4.386000000     2.980000000
H     1.895000000    -3.118000000     3.294000000
O     2.005000000     5.914000000     3.438000000
H     2.089000000     6.254000000     4.329000000
H     1.072000000     5.722000000     3.342000000
O     5.254000000    -5.932000000     0.359000000
H     4.812000000    -5.842000000     1.203000000
H     4.927000000    -5.199000000    -0.163000000
O     0.757000000     3.055000000     4.277000000
H     1.195000000     3.760000000     4.754000000
H     0.687000000     3.381000000     3.380000000
O     2.238000000    -5.191000000     0.294000000
H     2.265000000    -4.779000000     1.158000000
H     2.139000000    -4.461000000    -0.317000000
O    -0.725000000    -6.701000000    -3.475000000
H    -1.578000000    -6.298000000    -3.313000000
H    -0.640000000    -6.707000000    -4.428000000
O     4.817000000    -3.589000000    -1.082000000
H     3.886000000    -3.451000000    -1.253000000
H     5.241000000    -2.792000000    -1.401000000
O     5.630000000    -3.910000000    -4.077000000
H     6.472000000    -3.594000000    -4.407000000
H     5.141000000    -4.153000000    -4.863000000
O     1.333000000    -4.610000000    -6.339000000
H     0.389000000    -4.755000000    -6.278000000
H     1.558000000    -4.149000000    -5.531000000
O     1.629000000     1.892000000    -2.536000000
H     2.255000000     1.254000000    -2.878000000
H     1.864000000     1.988000000    -1.613000000
O     3.440000000    -0.860000000    -5.539000000
H     3.322000000    -1.141000000    -4.631000000
H     4.383000000    -0.928000000    -5.690000000
O     5.093000000    -0.465000000    -0.597000000
H     5.624000000     0.285000000    -0.862000000
H     5.033000000    -0.392000000     0.356000000
O     4.461000000    -2.251000000     2.622000000
H     4.691000000    -2.452000000     3.529000000
H     3.744000000    -2.852000000     2.418000000
O    -4.724000000     2.418000000    -3.123000000
H    -3.946000000     2.959000000    -3.259000000
H    -5.091000000     2.730000000    -2.296000000
O    -2.873000000     0.590000000    -4.028000000
H    -3.617000000     0.838000000    -3.478000000
H    -3.188000000    -0.161000000    -4.531000000
O     0.930000000    -7.045000000    -1.244000000
H     0.426000000    -6.807000000    -2.023000000
H     0.771000000    -6.329000000    -0.629000000
O     0.209000000     0.323000000    -4.064000000
H    -0.743000000     0.412000000    -4.024000000
H     0.534000000     0.932000000    -3.401000000
O    -2.461000000     2.257000000     5.959000000
H    -2.084000000     1.850000000     6.739000000
H    -2.752000000     3.120000000     6.255000000
O     1.063000000     0.416000000     5.713000000
H     1.038000000     0.699000000     6.627000000
H     0.681000000     1.147000000     5.226000000
O     2.867000000    -6.860000000    -4.132000000
H     2.618000000    -7.063000000    -3.230000000
H     2.949000000    -5.906000000    -4.149000000
O    -0.339000000    -2.416000000    -4.246000000
H    -0.166000000    -1.477000000    -4.181000000
H     0.148000000    -2.801000000    -3.517000000
O    -1.457000000    -6.115000000     1.031000000
H    -1.416000000    -7.023000000     0.731000000
H    -1.448000000    -6.178000000     1.986000000
O    -5.179000000    -1.820000000    -3.121000000
H    -4.939000000    -1.505000000    -3.992000000
H    -6.003000000    -1.375000000    -2.924000000
O     3.215000000    -0.567000000    -2.845000000
H     2.733000000    -1.260000000    -2.394000000
H     3.765000000    -0.177000000    -2.166000000
O    -3.401000000     4.257000000     2.609000000
H    -2.745000000     4.774000000     3.076000000
H    -4.239000000     4.628000000     2.885000000
O    -4.442000000     0.498000000     0.846000000
H    -3.846000000     0.687000000     1.570000000
H    -3.974000000    -0.144000000     0.312000000
O    -2.659000000    -3.541000000    -5.454000000
H    -2.931000000    -4.115000000    -4.738000000
H    -1.877000000    -3.099000000    -5.123000000
O     2.908000000    -3.796000000    -3.811000000
H     3.792000000    -3.561000000    -3.530000000
H     2.352000000    -3.572000000    -3.064000000
O     0.526000000     4.687000000    -1.336000000
H     1.270000000     4.231000000    -0.942000000
H     0.501000000     4.370000000    -2.238000000
