158
-3008.22231
C    -0.751000000    -1.225000000    -0.422000000
H    -1.231000000    -2.073000000    -0.904000000
C    -0.605000000    -0.080000000    -1.195000000
H    -0.966000000    -0.051000000    -2.221000000
C    -0.013000000     1.027000000    -0.630000000
H     0.058000000     1.882000000    -1.220000000
C     0.621000000     0.944000000     0.593000000
H     1.159000000     1.795000000     1.002000000
C     0.470000000    -0.209000000     1.421000000
H     0.829000000    -0.295000000     2.443000000
C    -0.219000000    -1.284000000     0.887000000
C    -0.072000000    -2.593000000     1.569000000
O    -0.482000000    -3.614000000     1.027000000
O     0.598000000    -2.617000000     2.561000000
O     3.298000000    -6.259000000    -0.752000000
H     2.383000000    -5.985000000    -0.697000000
H     3.750000000    -5.717000000    -0.105000000
O    -0.569000000    -1.252000000     4.772000000
H    -1.016000000    -2.062000000     5.019000000
H     0.089000000    -1.527000000     4.133000000
O     3.992000000    -4.611000000     1.698000000
H     3.108000000    -4.921000000     1.894000000
H     3.879000000    -3.683000000     1.488000000
O    -0.635000000     4.999000000    -5.538000000
H    -0.578000000     5.729000000    -4.921000000
H     0.237000000     4.949000000    -5.930000000
O    -3.121000000     3.437000000     1.844000000
H    -3.906000000     3.825000000     1.458000000
H    -3.450000000     2.893000000     2.560000000
O     3.748000000     0.492000000    -0.334000000
H     4.445000000     0.851000000     0.215000000
H     3.239000000     1.256000000    -0.605000000
O     4.007000000    -1.930000000     1.288000000
H     4.000000000    -2.062000000     0.340000000
H     3.322000000    -1.279000000     1.444000000
O     3.192000000     3.618000000    -4.134000000
H     3.078000000     3.825000000    -3.207000000
H     3.827000000     2.902000000    -4.144000000
O    -2.795000000    -3.580000000     2.339000000
H    -2.292000000    -3.661000000     3.149000000
H    -2.144000000    -3.669000000     1.643000000
O     1.113000000     1.841000000    -5.484000000
H     1.972000000     2.002000000    -5.873000000
H     1.059000000     0.889000000    -5.408000000
O    -0.543000000     4.702000000     1.813000000
H    -0.343000000     4.681000000     0.877000000
H    -1.230000000     4.045000000     1.926000000
O    -2.846000000    -3.171000000    -5.809000000
H    -2.425000000    -2.333000000    -5.616000000
H    -2.350000000    -3.524000000    -6.547000000
O    -3.675000000    -7.536000000     1.616000000
H    -4.222000000    -8.023000000     1.000000000
H    -3.044000000    -7.075000000     1.064000000
O     0.955000000    -3.683000000     5.857000000
H     0.397000000    -4.325000000     5.418000000
H     1.389000000    -3.214000000     5.144000000
O     3.574000000     3.482000000    -1.122000000
H     4.475000000     3.370000000    -1.425000000
H     3.624000000     4.186000000    -0.476000000
O     4.687000000     2.215000000     2.043000000
H     3.987000000     1.969000000     2.647000000
H     4.562000000     3.153000000     1.899000000
O    -2.104000000    -3.641000000     5.027000000
H    -2.261000000    -4.340000000     5.661000000
H    -2.888000000    -3.093000000     5.075000000
O     2.620000000     1.985000000     3.741000000
H     2.728000000     1.657000000     4.633000000
H     1.699000000     2.243000000     3.690000000
O    -4.589000000    -1.801000000     2.480000000
H    -4.033000000    -2.575000000     2.566000000
H    -4.625000000    -1.432000000     3.363000000
O     3.943000000    -3.463000000    -1.101000000
H     4.381000000    -3.761000000    -1.898000000
H     3.201000000    -2.946000000    -1.414000000
O    -0.566000000     5.035000000    -1.064000000
H    -1.475000000     4.781000000    -1.223000000
H    -0.064000000     4.553000000    -1.721000000
O     0.554000000     0.257000000     6.870000000
H     0.021000000    -0.364000000     6.374000000
H     0.252000000     1.117000000     6.579000000
O     1.317000000    -5.610000000     1.726000000
H     0.935000000    -4.737000000     1.815000000
H     0.699000000    -6.190000000     2.171000000
O     0.033000000     2.576000000     3.808000000
H    -0.505000000     1.849000000     4.119000000
H     0.189000000     2.381000000     2.884000000
O    -1.196000000    -6.092000000     0.149000000
H    -0.945000000    -5.301000000     0.627000000
H    -1.594000000    -5.767000000    -0.659000000
O     3.273000000    -0.790000000     5.966000000
H     2.471000000    -0.526000000     6.417000000
H     3.063000000    -1.641000000     5.582000000
O     0.785000000    -4.287000000    -1.353000000
H     0.679000000    -4.548000000    -0.438000000
H     1.173000000    -3.413000000    -1.310000000
O     4.158000000     4.931000000     1.265000000
H     4.115000000     5.120000000     2.202000000
H     4.505000000     5.733000000     0.875000000
O    -2.974000000     4.310000000    -2.745000000
H    -2.426000000     4.875000000    -3.290000000
H    -2.970000000     3.466000000    -3.196000000
O    -4.535000000     0.645000000     0.356000000
H    -3.586000000     0.745000000     0.433000000
H    -4.767000000     0.023000000     1.046000000
O     1.801000000    -1.209000000    -4.918000000
H     1.799000000    -1.798000000    -5.673000000
H     2.728000000    -1.034000000    -4.754000000
O     3.493000000     5.682000000    -5.785000000
H     3.120000000     4.997000000    -5.230000000
H     4.140000000     6.116000000    -5.228000000
O     2.883000000    -2.742000000     3.919000000
H     2.085000000    -2.994000000     3.455000000
H     3.533000000    -2.615000000     3.228000000
O    -1.555000000    -5.352000000    -2.327000000
H    -1.202000000    -6.209000000    -2.569000000
H    -0.783000000    -4.825000000    -2.121000000
O    -1.786000000     2.477000000    -4.693000000
H    -1.379000000     3.266000000    -5.051000000
H    -1.512000000     1.776000000    -5.285000000
O    -2.620000000     0.530000000     4.177000000
H    -3.576000000     0.485000000     4.194000000
H    -2.336000000    -0.383000000     4.223000000
O    -0.394000000    -6.096000000     4.743000000
H    -0.758000000    -5.796000000     5.576000000
H     0.285000000    -6.724000000     4.991000000
O     1.512000000     7.056000000     1.586000000
H     1.039000000     6.232000000     1.699000000
H     2.102000000     7.098000000     2.339000000
O    -3.484000000    -1.140000000    -3.263000000
H    -2.725000000    -1.276000000    -3.830000000
H    -3.336000000    -1.726000000    -2.520000000
O    -1.151000000    -1.387000000    -4.820000000
H    -0.243000000    -1.536000000    -4.558000000
H    -1.093000000    -0.753000000    -5.534000000
O    -4.211000000     1.418000000    -3.722000000
H    -3.445000000     1.706000000    -4.219000000
H    -4.057000000     0.487000000    -3.562000000
O     2.306000000    -1.376000000    -1.636000000
H     2.786000000    -0.748000000    -1.097000000
H     1.438000000    -0.987000000    -1.742000000
O    -3.810000000    -3.429000000    -1.611000000
H    -4.413000000    -4.126000000    -1.355000000
H    -3.007000000    -3.886000000    -1.861000000
O     0.291000000    -8.075000000     0.333000000
H     0.860000000    -7.809000000    -0.390000000
H    -0.366000000    -7.382000000     0.388000000
O    -3.368000000     6.802000000     0.353000000
H    -2.786000000     6.102000000     0.648000000
H    -3.200000000     7.524000000     0.958000000
O    -3.458000000    -5.118000000    -4.194000000
H    -2.816000000    -5.216000000    -3.491000000
H    -3.057000000    -4.495000000    -4.800000000
O     0.446000000     3.256000000    -2.971000000
H     0.986000000     3.063000000    -3.738000000
H    -0.289000000     2.647000000    -3.037000000
O     0.913000000     7.344000000    -2.036000000
H     1.723000000     7.523000000    -1.558000000
H     0.543000000     6.576000000    -1.601000000
