158
-3039.04025
C     1.361000000     0.354000000     0.448000000
H     2.410000000     0.590000000     0.612000000
C     0.943000000     0.356000000    -0.904000000
H     1.615000000     0.528000000    -1.742000000
C    -0.452000000     0.149000000    -1.144000000
H    -0.796000000     0.195000000    -2.211000000
C    -1.256000000    -0.307000000    -0.123000000
H    -2.229000000    -0.706000000    -0.398000000
C    -0.782000000    -0.336000000     1.177000000
H    -1.469000000    -0.602000000     1.977000000
C     0.509000000     0.062000000     1.540000000
C     0.907000000    -0.003000000     2.982000000
O     0.114000000    -0.519000000     3.734000000
O     2.019000000     0.456000000     3.317000000
O     4.085000000    -3.442000000     0.622000000
H     4.173000000    -3.482000000     1.574000000
H     4.971000000    -3.269000000     0.306000000
O     0.222000000     2.645000000    -3.312000000
H    -0.377000000     3.272000000    -2.906000000
H     1.032000000     3.139000000    -3.443000000
O    -1.106000000    -4.187000000     2.180000000
H    -1.649000000    -4.557000000     1.484000000
H    -0.218000000    -4.474000000     1.969000000
O     2.605000000     3.018000000     3.960000000
H     2.460000000     2.112000000     3.687000000
H     1.763000000     3.449000000     3.813000000
O     0.197000000    -1.973000000    -6.217000000
H     0.172000000    -1.976000000    -5.260000000
H     1.108000000    -1.775000000    -6.432000000
O     4.178000000     0.941000000     7.758000000
H     3.644000000     1.310000000     8.462000000
H     3.589000000     0.346000000     7.296000000
O     5.046000000     1.284000000     4.234000000
H     4.470000000     1.822000000     4.776000000
H     4.453000000     0.818000000     3.644000000
O    -5.810000000    -0.984000000     4.408000000
H    -5.561000000    -0.512000000     3.613000000
H    -5.439000000    -1.859000000     4.294000000
O    -3.810000000    -3.381000000    -2.011000000
H    -4.621000000    -3.770000000    -2.341000000
H    -3.516000000    -2.805000000    -2.717000000
O    -1.614000000     1.249000000    -4.795000000
H    -0.865000000     1.734000000    -4.447000000
H    -2.070000000     0.924000000    -4.019000000
O     4.224000000     1.890000000    -0.792000000
H     4.890000000     1.347000000    -0.370000000
H     3.640000000     1.263000000    -1.219000000
O     2.149000000     4.656000000    -4.151000000
H     2.248000000     5.605000000    -4.219000000
H     2.422000000     4.325000000    -5.007000000
O    -2.162000000    -1.574000000     6.891000000
H    -1.678000000    -0.758000000     6.766000000
H    -1.565000000    -2.256000000     6.582000000
O     2.171000000    -4.899000000     4.762000000
H     1.690000000    -5.013000000     5.581000000
H     1.531000000    -4.522000000     4.158000000
O    -1.946000000     4.255000000    -2.036000000
H    -1.644000000     3.796000000    -1.252000000
H    -2.856000000     4.483000000    -1.845000000
O    -2.584000000    -4.950000000    -0.294000000
H    -2.981000000    -4.339000000    -0.915000000
H    -1.697000000    -5.087000000    -0.627000000
O     4.704000000    -1.938000000     5.371000000
H     4.622000000    -1.751000000     4.436000000
H     5.595000000    -1.668000000     5.592000000
O     2.710000000    -1.468000000    -4.784000000
H     3.078000000    -0.717000000    -4.318000000
H     1.906000000    -1.675000000    -4.307000000
O    -2.138000000     0.701000000    -7.301000000
H    -2.586000000     1.545000000    -7.359000000
H    -1.823000000     0.659000000    -6.398000000
O     4.045000000     4.072000000     1.108000000
H     3.100000000     3.986000000     1.232000000
H     4.243000000     3.501000000     0.366000000
O    -2.614000000    -0.377000000     4.060000000
H    -3.040000000    -1.125000000     4.478000000
H    -1.692000000    -0.628000000     4.002000000
O    -2.431000000    -2.541000000    -6.447000000
H    -1.709000000    -1.913000000    -6.407000000
H    -2.018000000    -3.364000000    -6.708000000
O    -5.203000000     2.655000000    -3.667000000
H    -5.911000000     3.051000000    -3.159000000
H    -4.921000000     3.348000000    -4.265000000
O     4.390000000    -0.978000000     2.586000000
H     4.563000000    -0.519000000     1.764000000
H     3.526000000    -0.666000000     2.857000000
O     4.024000000    -0.190000000    -2.757000000
H     4.900000000    -0.558000000    -2.867000000
H     3.528000000    -0.881000000    -2.317000000
O    -1.565000000     2.652000000     0.199000000
H    -1.033000000     1.859000000     0.130000000
H    -2.390000000     2.355000000     0.582000000
O     0.149000000    -2.011000000    -3.667000000
H    -0.242000000    -2.798000000    -3.289000000
H     0.424000000    -1.493000000    -2.911000000
O    -2.958000000     1.998000000     5.515000000
H    -2.338000000     1.883000000     6.235000000
H    -2.877000000     1.196000000     4.999000000
O    -3.371000000     1.518000000     1.973000000
H    -2.723000000     1.077000000     2.522000000
H    -4.039000000     0.852000000     1.809000000
O    -4.861000000    -3.437000000     1.036000000
H    -5.403000000    -4.155000000     0.710000000
H    -4.034000000    -3.526000000     0.562000000
O     7.193000000     1.461000000     2.810000000
H     6.633000000     1.373000000     3.581000000
H     8.051000000     1.152000000     3.101000000
O    -0.383000000     0.835000000     6.142000000
H     0.266000000     1.169000000     6.761000000
H     0.128000000     0.332000000     5.508000000
O    -0.554000000    -2.888000000     4.542000000
H    -0.788000000    -3.223000000     3.676000000
H    -0.345000000    -1.965000000     4.393000000
O    -3.840000000    -1.708000000    -4.252000000
H    -3.259000000    -1.952000000    -4.972000000
H    -3.653000000    -0.783000000    -4.096000000
O    -5.168000000    -0.500000000     1.574000000
H    -4.929000000    -1.421000000     1.466000000
H    -6.034000000    -0.429000000     1.172000000
O    -3.493000000    -2.855000000     4.369000000
H    -2.826000000    -3.275000000     4.911000000
H    -3.639000000    -3.469000000     3.649000000
O     1.166000000    -2.218000000     7.641000000
H     1.185000000    -3.117000000     7.314000000
H     1.721000000    -1.730000000     7.032000000
O    -2.851000000    -4.512000000    -4.611000000
H    -3.711000000    -4.910000000    -4.474000000
H    -3.016000000    -3.789000000    -5.216000000
O     1.623000000     5.478000000     5.790000000
H     1.928000000     5.427000000     6.696000000
H     2.212000000     4.900000000     5.306000000
O    -1.113000000     4.597000000    -5.399000000
H    -1.142000000     5.425000000    -4.920000000
H    -0.799000000     3.960000000    -4.757000000
O    -3.591000000     0.682000000    -3.076000000
H    -3.565000000     0.942000000    -2.155000000
H    -4.144000000     1.341000000    -3.495000000
O     1.007000000     3.752000000     1.533000000
H     0.459000000     3.059000000     1.165000000
H     0.393000000     4.453000000     1.752000000
O     2.679000000    -2.565000000    -1.739000000
H     2.429000000    -3.456000000    -1.986000000
H     2.993000000    -2.645000000    -0.838000000
O     6.009000000     2.355000000    -3.132000000
H     5.363000000     2.251000000    -2.433000000
H     5.506000000     2.250000000    -3.940000000
O     2.544000000    -0.512000000     5.997000000
H     3.312000000    -1.036000000     5.767000000
H     2.191000000    -0.224000000     5.155000000
O    -6.855000000    -0.843000000    -4.111000000
H    -5.974000000    -0.707000000    -3.763000000
H    -6.729000000    -1.418000000    -4.866000000
O    -0.104000000    -5.177000000    -1.457000000
H     0.334000000    -5.555000000    -0.695000000
H     0.520000000    -5.293000000    -2.174000000
O     5.758000000     0.437000000     0.777000000
H     6.157000000     0.695000000     1.608000000
H     6.114000000    -0.435000000     0.602000000
