158
-3050.45566
C     0.317000000    -1.451000000     0.003000000
H     0.445000000    -2.524000000    -0.106000000
C     0.177000000    -0.657000000    -1.101000000
H     0.307000000    -1.031000000    -2.114000000
C    -0.054000000     0.738000000    -0.964000000
H    -0.139000000     1.427000000    -1.823000000
C    -0.255000000     1.277000000     0.300000000
H    -0.453000000     2.344000000     0.350000000
C    -0.225000000     0.378000000     1.394000000
H    -0.404000000     0.760000000     2.395000000
C     0.065000000    -0.954000000     1.267000000
C     0.282000000    -1.824000000     2.409000000
O     0.448000000    -3.062000000     2.313000000
O     0.296000000    -1.268000000     3.485000000
O    -2.629000000    -2.956000000    -4.594000000
H    -2.630000000    -2.378000000    -5.358000000
H    -1.718000000    -3.235000000    -4.506000000
O    -0.069000000    -1.359000000     6.198000000
H    -1.000000000    -1.138000000     6.171000000
H     0.184000000    -1.443000000     5.279000000
O    -3.676000000    -2.862000000     0.264000000
H    -3.292000000    -2.546000000    -0.554000000
H    -2.981000000    -3.380000000     0.670000000
O    -3.621000000    -2.146000000     3.526000000
H    -4.540000000    -1.914000000     3.658000000
H    -3.543000000    -2.288000000     2.582000000
O    -2.174000000     6.734000000    -2.335000000
H    -2.252000000     5.846000000    -2.681000000
H    -2.671000000     7.275000000    -2.948000000
O    -3.337000000     2.028000000    -3.025000000
H    -3.557000000     2.789000000    -2.487000000
H    -3.503000000     1.276000000    -2.455000000
O    -3.194000000     1.892000000     2.758000000
H    -3.498000000     2.576000000     3.355000000
H    -2.777000000     1.246000000     3.327000000
O     3.919000000    -2.216000000    -0.558000000
H     4.300000000    -1.378000000    -0.819000000
H     3.151000000    -1.979000000    -0.037000000
O    -1.717000000     0.299000000    -5.273000000
H    -2.145000000     0.766000000    -4.555000000
H    -1.131000000     0.946000000    -5.665000000
O    -2.769000000    -1.509000000    -2.130000000
H    -1.850000000    -1.361000000    -1.905000000
H    -2.740000000    -1.924000000    -2.992000000
O    -0.483000000     2.199000000     5.219000000
H    -0.373000000     2.951000000     4.637000000
H    -1.008000000     1.579000000     4.713000000
O     3.196000000    -0.246000000    -3.851000000
H     3.900000000    -0.894000000    -3.823000000
H     2.425000000    -0.742000000    -4.126000000
O    -1.624000000    -6.905000000     1.161000000
H    -1.454000000    -6.812000000     2.099000000
H    -1.871000000    -7.823000000     1.053000000
O    -3.568000000     5.308000000     2.406000000
H    -3.337000000     4.776000000     1.645000000
H    -4.085000000     6.029000000     2.047000000
O     0.690000000    -1.283000000    -4.949000000
H    -0.242000000    -1.166000000    -4.763000000
H     0.759000000    -1.186000000    -5.899000000
O     3.105000000     1.865000000    -5.491000000
H     3.127000000     1.213000000    -4.791000000
H     3.949000000     1.771000000    -5.933000000
O     2.951000000    -0.904000000     3.386000000
H     2.055000000    -0.925000000     3.720000000
H     3.440000000    -0.407000000     4.042000000
O     0.842000000    -4.181000000     4.664000000
H     0.845000000    -3.668000000     3.856000000
H     1.524000000    -3.782000000     5.204000000
O    -5.096000000     1.340000000     1.015000000
H    -4.390000000     1.308000000     1.660000000
H    -5.252000000     2.274000000     0.877000000
O    -4.718000000    -4.917000000     2.641000000
H    -5.022000000    -4.267000000     3.274000000
H    -3.765000000    -4.831000000     2.648000000
O     3.011000000     0.575000000     0.784000000
H     2.085000000     0.434000000     0.589000000
H     3.081000000     0.439000000     1.729000000
O     3.950000000     4.555000000    -5.163000000
H     3.588000000     3.756000000    -5.547000000
H     4.883000000     4.520000000    -5.375000000
O     3.859000000    -3.381000000     2.699000000
H     3.907000000    -3.756000000     3.578000000
H     3.570000000    -2.479000000     2.838000000
O    -2.009000000     4.208000000    -3.761000000
H    -2.775000000     4.556000000    -4.218000000
H    -2.206000000     3.279000000    -3.639000000
O     1.915000000    -4.984000000     1.464000000
H     1.237000000    -4.505000000     1.941000000
H     2.738000000    -4.610000000     1.779000000
O     0.346000000     2.452000000    -6.082000000
H     0.653000000     3.321000000    -6.339000000
H     1.136000000     1.995000000    -5.791000000
O    -0.422000000    -5.766000000    -1.045000000
H    -1.031000000    -6.026000000    -0.353000000
H    -0.951000000    -5.769000000    -1.843000000
O    -1.992000000    -4.204000000     1.901000000
H    -1.824000000    -5.146000000     1.900000000
H    -1.123000000    -3.806000000     1.854000000
O    -0.426000000     4.397000000     3.475000000
H    -0.192000000     4.689000000     2.595000000
H    -1.143000000     4.975000000     3.737000000
O     3.989000000     1.455000000    -1.755000000
H     3.679000000     0.852000000    -2.431000000
H     3.587000000     1.136000000    -0.947000000
O    -0.113000000    -3.716000000    -4.121000000
H     0.422000000    -4.509000000    -4.083000000
H     0.471000000    -3.050000000    -4.482000000
O     2.204000000    -5.885000000    -1.294000000
H     2.328000000    -5.937000000    -0.346000000
H     1.287000000    -5.633000000    -1.403000000
O     4.482000000     2.484000000     3.763000000
H     4.057000000     1.941000000     4.428000000
H     3.835000000     2.551000000     3.061000000
O    -4.992000000    -0.151000000    -1.216000000
H    -4.278000000    -0.773000000    -1.357000000
H    -4.815000000     0.224000000    -0.353000000
O     4.049000000    -4.187000000    -2.510000000
H     3.859000000    -3.713000000    -1.700000000
H     3.517000000    -4.981000000    -2.454000000
O    -1.958000000    -0.131000000     4.273000000
H    -1.140000000    -0.626000000     4.230000000
H    -2.637000000    -0.770000000     4.058000000
O    -4.241000000     4.299000000    -1.858000000
H    -4.496000000     4.318000000    -0.936000000
H    -4.615000000     5.099000000    -2.227000000
O     3.418000000     5.880000000    -2.973000000
H     3.266000000     5.179000000    -2.339000000
H     3.463000000     5.433000000    -3.818000000
O     2.459000000     5.583000000     0.707000000
H     2.474000000     6.536000000     0.619000000
H     2.808000000     5.260000000    -0.124000000
O    -3.190000000     1.405000000     6.728000000
H    -3.108000000     1.243000000     5.788000000
H    -3.085000000     2.352000000     6.817000000
O    -0.492000000    -6.315000000     3.481000000
H     0.346000000    -6.568000000     3.093000000
H    -0.262000000    -5.660000000     4.139000000
O     2.029000000     3.085000000     2.514000000
H     1.146000000     3.210000000     2.863000000
H     2.032000000     3.574000000     1.691000000
O     3.242000000     3.924000000    -1.249000000
H     3.620000000     3.045000000    -1.223000000
H     2.381000000     3.803000000    -1.651000000
O     2.684000000    -3.556000000     6.420000000
H     2.407000000    -2.749000000     6.853000000
H     2.957000000    -4.131000000     7.135000000
O    -0.701000000     5.560000000     0.883000000
H    -1.276000000     6.307000000     0.718000000
H    -0.013000000     5.637000000     0.222000000
O     3.041000000     1.050000000     5.747000000
H     3.722000000     1.012000000     6.419000000
H     2.220000000     1.065000000     6.238000000
O     0.997000000     4.142000000    -3.079000000
H     0.895000000     4.408000000    -3.993000000
H     0.101000000     4.060000000    -2.753000000
O     0.462000000     6.483000000    -1.392000000
H     0.797000000     5.869000000    -2.045000000
H    -0.453000000     6.619000000    -1.639000000
