158
-3039.95240
C     0.623000000    -1.244000000    -0.612000000
H     1.260000000    -1.927000000    -1.168000000
C     0.130000000    -0.091000000    -1.312000000
H     0.374000000     0.083000000    -2.357000000
C    -0.519000000     0.978000000    -0.639000000
H    -0.857000000     1.801000000    -1.191000000
C    -0.684000000     0.852000000     0.801000000
H    -1.205000000     1.638000000     1.342000000
C    -0.224000000    -0.291000000     1.528000000
H    -0.282000000    -0.332000000     2.612000000
C     0.476000000    -1.324000000     0.787000000
C     1.214000000    -2.386000000     1.486000000
O     1.604000000    -3.370000000     0.867000000
O     1.166000000    -2.508000000     2.729000000
O    -2.935000000    -1.143000000    -4.044000000
H    -3.282000000    -1.018000000    -3.161000000
H    -3.077000000    -2.071000000    -4.229000000
O    -0.526000000    -3.479000000     4.742000000
H     0.170000000    -3.274000000     4.118000000
H    -1.300000000    -3.038000000     4.391000000
O    -2.498000000     4.891000000    -1.315000000
H    -2.446000000     4.137000000    -1.902000000
H    -2.096000000     5.607000000    -1.809000000
O    -0.566000000     2.418000000    -5.276000000
H    -0.532000000     2.955000000    -6.068000000
H     0.332000000     2.106000000    -5.161000000
O     4.313000000    -0.977000000    -0.858000000
H     4.629000000    -1.840000000    -1.122000000
H     5.078000000    -0.406000000    -0.939000000
O     1.692000000     0.711000000    -5.346000000
H     1.229000000    -0.114000000    -5.493000000
H     2.537000000     0.450000000    -4.979000000
O     1.244000000    -4.866000000     6.789000000
H     0.930000000    -4.582000000     5.931000000
H     1.103000000    -5.813000000     6.794000000
O    -2.776000000     0.621000000    -6.169000000
H    -2.920000000     0.032000000    -5.428000000
H    -2.034000000     1.164000000    -5.903000000
O    -2.622000000    -1.165000000    -0.907000000
H    -2.876000000    -2.004000000    -0.523000000
H    -1.712000000    -1.043000000    -0.638000000
O     2.286000000     0.822000000     3.926000000
H     2.233000000     1.541000000     3.295000000
H     2.795000000     0.147000000     3.477000000
O     4.156000000    -3.384000000     6.996000000
H     3.823000000    -3.534000000     6.111000000
H     4.012000000    -4.214000000     7.450000000
O     1.341000000    -3.820000000    -3.534000000
H     1.687000000    -3.000000000    -3.887000000
H     1.914000000    -4.023000000    -2.795000000
O     3.472000000    -2.762000000     4.132000000
H     4.177000000    -2.157000000     3.900000000
H     2.758000000    -2.538000000     3.534000000
O     1.646000000    -5.221000000     3.564000000
H     1.282000000    -5.865000000     2.957000000
H     1.641000000    -4.399000000     3.074000000
O    -2.974000000     2.570000000     3.376000000
H    -3.642000000     2.282000000     3.999000000
H    -3.470000000     2.965000000     2.659000000
O     3.872000000    -0.612000000     2.196000000
H     4.678000000    -0.925000000     2.607000000
H     3.963000000    -0.854000000     1.274000000
O     5.082000000    -5.097000000     3.789000000
H     4.304000000    -5.650000000     3.713000000
H     4.737000000    -4.225000000     3.981000000
O     2.181000000    -7.264000000     5.250000000
H     2.251000000    -7.905000000     4.543000000
H     2.048000000    -6.428000000     4.803000000
O    -2.605000000     2.707000000    -3.188000000
H    -3.210000000     2.927000000    -3.896000000
H    -1.817000000     2.397000000    -3.634000000
O    -1.545000000     6.854000000    -3.111000000
H    -1.172000000     7.567000000    -3.631000000
H    -2.468000000     7.090000000    -3.009000000
O     2.532000000    -4.564000000    -1.252000000
H     2.042000000    -4.227000000    -0.502000000
H     3.319000000    -4.020000000    -1.288000000
O    -1.838000000    -6.081000000     4.483000000
H    -1.611000000    -6.398000000     5.357000000
H    -1.315000000    -5.287000000     4.373000000
O    -0.900000000    -6.821000000    -1.925000000
H    -0.975000000    -5.870000000    -2.000000000
H    -0.206000000    -6.957000000    -1.279000000
O     3.859000000    -6.627000000     1.613000000
H     4.635000000    -6.853000000     2.127000000
H     4.140000000    -5.893000000     1.066000000
O    -4.648000000     3.177000000     1.212000000
H    -4.881000000     3.910000000     0.642000000
H    -4.018000000     2.669000000     0.702000000
O     4.166000000    -3.608000000     1.097000000
H     4.217000000    -4.000000000     1.969000000
H     3.230000000    -3.589000000     0.897000000
O    -0.712000000    -5.166000000     0.841000000
H    -0.379000000    -5.924000000     1.320000000
H    -0.040000000    -4.495000000     0.958000000
O    -0.817000000     3.488000000     4.817000000
H     0.001000000     3.009000000     4.681000000
H    -1.384000000     3.200000000     4.101000000
O    -0.153000000    -1.363000000    -5.735000000
H    -0.928000000    -1.123000000    -5.227000000
H    -0.470000000    -2.010000000    -6.365000000
O     3.338000000    -6.641000000    -2.619000000
H     4.279000000    -6.484000000    -2.537000000
H     2.937000000    -6.007000000    -2.024000000
O     2.082000000     2.429000000     1.788000000
H     1.645000000     1.732000000     1.300000000
H     1.806000000     3.236000000     1.353000000
O    -3.916000000     6.047000000     1.543000000
H    -2.979000000     6.160000000     1.383000000
H    -3.973000000     5.795000000     2.465000000
O     3.300000000    -1.718000000    -3.333000000
H     3.987000000    -2.246000000    -2.927000000
H     3.114000000    -1.033000000    -2.691000000
O    -2.491000000    -0.047000000     4.796000000
H    -2.537000000    -0.541000000     3.978000000
H    -2.774000000     0.836000000     4.559000000
O    -3.793000000     1.387000000    -1.027000000
H    -3.479000000     0.499000000    -1.199000000
H    -3.907000000     1.773000000    -1.896000000
O    -2.826000000    -3.626000000    -0.047000000
H    -3.361000000    -4.263000000    -0.520000000
H    -2.142000000    -4.151000000     0.371000000
O     2.005000000    -8.482000000     0.076000000
H     2.425000000    -9.192000000     0.562000000
H     2.284000000    -7.685000000     0.527000000
O     5.118000000    -3.477000000    -1.478000000
H     5.292000000    -3.687000000    -0.561000000
H     5.897000000    -3.778000000    -1.945000000
O    -1.537000000    -0.641000000     7.625000000
H    -2.029000000    -0.437000000     6.830000000
H    -1.118000000     0.185000000     7.867000000
O     0.878000000     4.110000000    -0.006000000
H     1.508000000     4.512000000    -0.605000000
H     0.384000000     3.500000000    -0.552000000
O     1.180000000     6.204000000    -4.204000000
H     1.233000000     5.703000000    -5.018000000
H     0.281000000     6.075000000    -3.902000000
O    -1.076000000    -3.979000000    -2.276000000
H    -0.937000000    -3.480000000    -1.471000000
H    -0.335000000    -3.743000000    -2.835000000
O    -6.320000000     1.368000000    -2.706000000
H    -5.882000000     1.173000000    -1.877000000
H    -7.252000000     1.378000000    -2.488000000
O     0.295000000     0.928000000     5.764000000
H    -0.465000000     0.640000000     5.258000000
H     1.030000000     0.850000000     5.157000000
O    -2.813000000    -2.609000000     3.375000000
H    -2.708000000    -2.105000000     2.567000000
H    -3.424000000    -3.308000000     3.143000000
O     2.689000000     4.394000000    -2.315000000
H     2.409000000     5.009000000    -2.993000000
H     3.587000000     4.166000000    -2.555000000
O    -1.287000000     5.540000000     1.080000000
H    -1.578000000     5.465000000     0.171000000
H    -0.435000000     5.106000000     1.095000000
O    -3.417000000     0.042000000     1.821000000
H    -3.259000000     0.831000000     2.339000000
H    -3.253000000     0.311000000     0.917000000
