158
-3048.11430
C     1.388000000    -0.523000000    -0.407000000
H     2.363000000    -0.781000000    -0.812000000
C     0.981000000     0.801000000    -0.446000000
H     1.579000000     1.567000000    -0.933000000
C    -0.300000000     1.153000000    -0.014000000
H    -0.535000000     2.286000000     0.073000000
C    -1.176000000     0.200000000     0.482000000
H    -2.121000000     0.519000000     0.914000000
C    -0.749000000    -1.037000000     0.594000000
H    -1.466000000    -1.773000000     0.950000000
C     0.475000000    -1.504000000     0.031000000
C     0.781000000    -2.957000000    -0.072000000
O     1.880000000    -3.363000000    -0.269000000
O    -0.100000000    -3.739000000     0.166000000
O    -1.611000000     6.832000000    -2.610000000
H    -1.420000000     7.645000000    -3.078000000
H    -0.859000000     6.269000000    -2.792000000
O    -2.346000000     0.160000000    -2.546000000
H    -1.792000000    -0.119000000    -1.817000000
H    -2.857000000    -0.618000000    -2.770000000
O    -2.590000000     0.881000000     3.670000000
H    -3.403000000     0.802000000     4.170000000
H    -2.418000000    -0.006000000     3.352000000
O    -3.876000000    -2.131000000    -2.486000000
H    -4.069000000    -2.257000000    -1.558000000
H    -4.667000000    -1.727000000    -2.843000000
O     2.665000000     4.238000000     2.751000000
H     3.154000000     3.869000000     3.487000000
H     1.938000000     3.630000000     2.617000000
O    -6.552000000     3.332000000     1.365000000
H    -5.606000000     3.255000000     1.242000000
H    -6.885000000     2.445000000     1.225000000
O     1.808000000    -6.514000000     2.406000000
H     1.143000000    -7.172000000     2.201000000
H     1.318000000    -5.695000000     2.483000000
O    -2.826000000    -4.174000000     0.094000000
H    -1.890000000    -4.034000000     0.236000000
H    -3.214000000    -3.303000000     0.180000000
O     0.530000000     7.701000000     0.344000000
H     1.220000000     7.096000000     0.073000000
H     0.570000000     8.412000000    -0.296000000
O    -3.606000000     2.987000000     1.752000000
H    -3.500000000     3.922000000     1.923000000
H    -3.183000000     2.557000000     2.495000000
O     4.982000000     2.017000000    -3.080000000
H     5.180000000     2.805000000    -3.585000000
H     4.215000000     1.642000000    -3.512000000
O     1.889000000    -2.747000000    -2.860000000
H     2.404000000    -3.094000000    -3.589000000
H     2.130000000    -3.296000000    -2.114000000
O    -1.067000000     3.632000000     6.235000000
H    -0.166000000     3.935000000     6.348000000
H    -1.224000000     3.695000000     5.293000000
O     3.688000000    -2.075000000     1.423000000
H     3.220000000    -1.438000000     1.963000000
H     3.010000000    -2.463000000     0.869000000
O    -4.668000000    -6.337000000     1.299000000
H    -3.956000000    -6.136000000     0.692000000
H    -5.105000000    -7.096000000     0.912000000
O    -0.070000000    -6.210000000    -0.655000000
H    -0.224000000    -5.309000000    -0.368000000
H     0.880000000    -6.268000000    -0.762000000
O    -2.751000000    -7.191000000    -0.867000000
H    -2.028000000    -6.577000000    -0.739000000
H    -2.325000000    -8.035000000    -1.014000000
O    -2.743000000     5.773000000     1.733000000
H    -1.919000000     6.014000000     2.155000000
H    -3.363000000     6.445000000     2.015000000
O    -1.657000000     2.203000000    -4.191000000
H    -2.216000000     2.963000000    -4.029000000
H    -1.997000000     1.526000000    -3.607000000
O    -0.811000000    -6.497000000    -3.826000000
H    -1.504000000    -5.864000000    -4.017000000
H    -0.696000000    -6.446000000    -2.877000000
O     6.020000000    -2.914000000     2.022000000
H     5.174000000    -2.526000000     1.799000000
H     5.805000000    -3.633000000     2.616000000
O    -2.656000000    -4.626000000    -2.934000000
H    -2.816000000    -5.054000000    -2.092000000
H    -3.128000000    -3.796000000    -2.874000000
O    -2.521000000     4.680000000    -0.800000000
H    -2.113000000     5.262000000    -1.441000000
H    -2.560000000     5.198000000     0.004000000
O     4.812000000    -5.646000000    -2.165000000
H     4.733000000    -5.155000000    -2.983000000
H     3.916000000    -5.712000000    -1.837000000
O    -0.727000000    -2.045000000    -3.978000000
H    -1.473000000    -2.091000000    -3.380000000
H     0.041000000    -2.087000000    -3.407000000
O     2.661000000    -5.867000000    -0.290000000
H     2.781000000    -6.074000000     0.637000000
H     2.306000000    -4.978000000    -0.293000000
O     5.013000000     1.659000000    -0.205000000
H     5.085000000     1.739000000    -1.156000000
H     4.847000000     0.729000000    -0.054000000
O     4.088000000     4.219000000     0.237000000
H     3.588000000     3.926000000     1.000000000
H     4.502000000     3.425000000    -0.098000000
O     5.718000000     1.612000000     2.602000000
H     5.285000000     2.189000000     3.231000000
H     5.255000000     1.765000000     1.778000000
O     2.500000000     0.592000000    -3.734000000
H     2.116000000     0.012000000    -3.077000000
H     2.548000000     0.057000000    -4.527000000
O     4.367000000    -3.908000000    -4.104000000
H     5.266000000    -3.965000000    -4.428000000
H     3.826000000    -4.140000000    -4.859000000
O    -6.211000000     0.503000000    -1.834000000
H    -5.379000000     0.766000000    -1.440000000
H    -6.096000000     0.669000000    -2.769000000
O    -3.889000000     1.369000000    -0.619000000
H    -3.425000000     1.529000000    -1.440000000
H    -3.642000000     2.103000000    -0.057000000
O    -2.193000000    -4.373000000     4.029000000
H    -1.750000000    -4.504000000     4.867000000
H    -3.045000000    -4.794000000     4.139000000
O    -0.676000000    -8.011000000     1.717000000
H    -1.564000000    -8.218000000     2.007000000
H    -0.796000000    -7.556000000     0.883000000
O     0.630000000     1.904000000    -5.751000000
H     1.355000000     1.649000000    -5.180000000
H    -0.113000000     2.018000000    -5.159000000
O    -4.000000000    -1.806000000     0.472000000
H    -4.781000000    -2.059000000     0.964000000
H    -3.780000000    -0.935000000     0.802000000
O    -3.796000000     3.689000000    -2.991000000
H    -3.732000000     4.005000000    -2.090000000
H    -4.691000000     3.357000000    -3.066000000
O     6.311000000    -2.389000000    -2.263000000
H     6.941000000    -2.744000000    -2.890000000
H     5.455000000    -2.587000000    -2.644000000
O     2.711000000     0.043000000     3.464000000
H     3.330000000     0.042000000     4.194000000
H     1.956000000    -0.447000000     3.789000000
O    -0.343000000     4.595000000    -3.727000000
H     0.042000000     4.778000000    -4.584000000
H    -0.375000000     3.640000000    -3.678000000
O    -0.179000000     6.795000000     2.694000000
H    -0.273000000     7.670000000     3.072000000
H     0.054000000     6.954000000     1.779000000
O     0.724000000    -1.526000000     3.906000000
H     0.785000000    -2.373000000     3.464000000
H     1.124000000    -1.673000000     4.763000000
O     1.144000000     1.900000000     2.523000000
H     0.690000000     1.380000000     1.860000000
H     1.711000000     1.273000000     2.972000000
O    -1.257000000     3.031000000     3.609000000
H    -0.620000000     2.877000000     2.911000000
H    -1.609000000     2.164000000     3.808000000
O     0.270000000    -4.373000000     2.964000000
H     0.040000000    -4.230000000     2.046000000
H    -0.564000000    -4.560000000     3.395000000
O     2.857000000     6.502000000    -0.928000000
H     2.969000000     6.326000000    -1.862000000
H     3.482000000     5.918000000    -0.497000000
O    -2.112000000    -1.650000000     3.343000000
H    -1.225000000    -1.750000000     2.997000000
H    -2.502000000    -2.520000000     3.259000000
