158
-3032.29739
C     1.447000000     0.301000000     0.427000000
H     2.480000000     0.492000000     0.706000000
C     0.991000000     0.179000000    -0.899000000
H     1.715000000     0.251000000    -1.707000000
C    -0.367000000    -0.071000000    -1.208000000
H    -0.645000000    -0.211000000    -2.288000000
C    -1.262000000    -0.190000000    -0.169000000
H    -2.300000000    -0.376000000    -0.430000000
C    -0.835000000    -0.128000000     1.169000000
H    -1.516000000    -0.095000000     2.015000000
C     0.510000000     0.098000000     1.498000000
C     0.914000000     0.088000000     2.917000000
O     0.263000000    -0.435000000     3.796000000
O     1.810000000     0.802000000     3.252000000
O     2.635000000     2.106000000    -3.546000000
H     2.308000000     2.454000000    -2.716000000
H     3.585000000     2.210000000    -3.492000000
O     1.064000000    -4.261000000     2.939000000
H     0.934000000    -3.693000000     2.181000000
H     1.763000000    -4.859000000     2.674000000
O     2.023000000     3.093000000     4.302000000
H     2.037000000     2.208000000     3.937000000
H     1.133000000     3.405000000     4.139000000
O    -0.143000000    -0.488000000    -6.478000000
H    -0.239000000    -1.029000000    -7.262000000
H    -0.793000000    -0.833000000    -5.866000000
O     2.850000000    -0.709000000    -3.928000000
H     2.872000000    -0.790000000    -4.882000000
H     2.385000000     0.112000000    -3.768000000
O     4.706000000     1.961000000     6.872000000
H     5.100000000     2.043000000     6.003000000
H     4.058000000     1.264000000     6.776000000
O     5.674000000    -1.798000000    -4.128000000
H     6.147000000    -2.307000000    -3.470000000
H     4.894000000    -1.483000000    -3.671000000
O    -2.358000000     3.485000000    -5.839000000
H    -1.466000000     3.831000000    -5.812000000
H    -2.334000000     2.717000000    -5.269000000
O    -3.868000000    -0.423000000     2.433000000
H    -4.797000000    -0.550000000     2.623000000
H    -3.428000000    -1.129000000     2.908000000
O    -1.593000000    -4.049000000    -2.793000000
H    -1.950000000    -4.849000000    -2.407000000
H    -2.288000000    -3.400000000    -2.686000000
O     1.610000000     1.637000000    -6.121000000
H     1.952000000     1.826000000    -5.247000000
H     0.961000000     0.947000000    -5.980000000
O     4.179000000     2.430000000    -0.301000000
H     4.480000000     2.255000000     0.590000000
H     4.647000000     1.793000000    -0.841000000
O    -2.008000000    -3.324000000     6.061000000
H    -2.132000000    -2.437000000     6.398000000
H    -1.060000000    -3.409000000     5.956000000
O     2.902000000    -4.358000000     5.702000000
H     2.713000000    -5.283000000     5.543000000
H     2.053000000    -3.924000000     5.624000000
O     4.439000000    -0.138000000     2.378000000
H     5.076000000    -0.401000000     3.043000000
H     3.807000000     0.403000000     2.853000000
O    -1.234000000    -3.733000000     0.822000000
H    -0.290000000    -3.712000000     0.669000000
H    -1.571000000    -2.974000000     0.346000000
O     5.208000000     1.443000000    -3.142000000
H     5.680000000     1.444000000    -3.975000000
H     5.763000000     0.932000000    -2.553000000
O     2.108000000     4.003000000    -1.333000000
H     1.848000000     4.463000000    -0.535000000
H     2.657000000     3.282000000    -1.025000000
O    -1.725000000     0.860000000     4.559000000
H    -2.245000000     0.810000000     3.756000000
H    -0.978000000     0.284000000     4.396000000
O    -2.150000000    -1.588000000    -4.824000000
H    -1.368000000    -2.076000000    -4.565000000
H    -2.853000000    -1.963000000    -4.293000000
O    -4.051000000     2.430000000    -1.629000000
H    -4.284000000     3.229000000    -2.101000000
H    -4.859000000     2.170000000    -1.186000000
O     4.901000000     3.622000000     2.288000000
H     4.514000000     3.929000000     3.108000000
H     4.520000000     4.188000000     1.616000000
O     6.613000000    -0.195000000    -1.342000000
H     7.355000000    -0.602000000    -0.895000000
H     5.848000000    -0.672000000    -1.019000000
O    -0.840000000    -2.719000000    -7.729000000
H    -1.597000000    -2.905000000    -8.285000000
H    -0.952000000    -3.293000000    -6.972000000
O    -0.609000000     3.405000000     4.126000000
H    -0.977000000     2.720000000     4.684000000
H    -1.307000000     3.611000000     3.505000000
O     3.004000000    -2.500000000    -1.945000000
H     2.998000000    -1.890000000    -2.683000000
H     3.518000000    -2.055000000    -1.271000000
O    -1.291000000     2.129000000     6.840000000
H    -0.416000000     1.795000000     7.036000000
H    -1.499000000     1.766000000     5.979000000
O    -5.295000000     1.663000000    -5.353000000
H    -4.867000000     1.142000000    -6.033000000
H    -4.591000000     1.884000000    -4.743000000
O    -4.149000000     2.222000000     1.401000000
H    -4.090000000     2.095000000     0.454000000
H    -4.100000000     1.337000000     1.764000000
O    -2.657000000     4.296000000     2.541000000
H    -3.021000000     4.477000000     3.408000000
H    -3.154000000     3.542000000     2.225000000
O     0.309000000    -2.542000000    -4.117000000
H     0.964000000    -2.385000000    -3.437000000
H    -0.032000000    -3.416000000    -3.923000000
O    -2.457000000    -0.974000000     7.404000000
H    -2.314000000    -1.156000000     8.333000000
H    -2.388000000    -0.022000000     7.332000000
O     0.717000000    -2.584000000     5.044000000
H     0.891000000    -3.178000000     4.314000000
H     0.380000000    -1.789000000     4.632000000
O    -5.094000000    -1.231000000     5.290000000
H    -5.209000000    -0.283000000     5.353000000
H    -4.200000000    -1.343000000     4.968000000
O    -2.424000000     1.244000000    -4.376000000
H    -2.244000000     0.387000000    -4.762000000
H    -2.154000000     1.157000000    -3.462000000
O    -2.937000000    -2.968000000     3.414000000
H    -2.833000000    -3.292000000     4.309000000
H    -2.042000000    -2.878000000     3.087000000
O     1.133000000     0.006000000     6.862000000
H     0.885000000    -0.901000000     6.684000000
H     1.874000000     0.170000000     6.278000000
O     4.461000000     4.280000000     4.891000000
H     3.676000000     3.736000000     4.953000000
H     4.194000000     5.127000000     5.248000000
O     2.328000000    -2.926000000    -6.781000000
H     1.817000000    -2.827000000    -5.977000000
H     1.717000000    -2.703000000    -7.483000000
O    -3.959000000    -2.725000000    -2.548000000
H    -4.659000000    -2.206000000    -2.150000000
H    -4.268000000    -3.629000000    -2.490000000
O    -0.748000000     3.077000000    -1.705000000
H    -0.059000000     2.814000000    -1.095000000
H    -1.536000000     2.643000000    -1.378000000
O     1.654000000     4.391000000     1.238000000
H     1.597000000     3.901000000     2.058000000
H     1.264000000     5.242000000     1.439000000
O     4.545000000    -1.385000000    -0.158000000
H     4.652000000    -2.247000000     0.244000000
H     4.255000000    -0.821000000     0.559000000
O     2.393000000    -5.144000000    -2.444000000
H     2.369000000    -4.203000000    -2.267000000
H     3.315000000    -5.330000000    -2.624000000
O    -6.185000000     1.242000000    -0.515000000
H    -6.060000000     0.387000000    -0.102000000
H    -7.100000000     1.461000000    -0.340000000
O     3.314000000     0.037000000     5.295000000
H     4.016000000    -0.607000000     5.207000000
H     2.840000000    -0.010000000     4.464000000
O    -6.221000000    -1.368000000    -4.756000000
H    -6.274000000    -0.414000000    -4.818000000
H    -5.295000000    -1.546000000    -4.589000000
O     1.269000000    -3.013000000     0.405000000
H     1.025000000    -2.286000000    -0.168000000
H     2.007000000    -3.431000000    -0.039000000
