158
-3009.02513
C     0.384000000    -0.964000000    -1.135000000
H     0.487000000    -1.596000000    -2.014000000
C    -0.241000000     0.274000000    -1.293000000
H    -0.389000000     0.682000000    -2.290000000
C    -0.622000000     1.031000000    -0.170000000
H    -1.207000000     1.996000000    -0.336000000
C    -0.302000000     0.577000000     1.117000000
H    -0.624000000     1.216000000     1.936000000
C     0.468000000    -0.566000000     1.297000000
H     0.699000000    -0.873000000     2.314000000
C     0.811000000    -1.329000000     0.138000000
C     1.525000000    -2.601000000     0.355000000
O     2.030000000    -3.239000000    -0.547000000
O     1.407000000    -3.105000000     1.438000000
O    -3.825000000     1.761000000    -5.862000000
H    -3.194000000     1.822000000    -5.145000000
H    -4.372000000     2.541000000    -5.767000000
O    -1.019000000    -4.039000000     5.077000000
H    -1.156000000    -3.167000000     5.448000000
H    -0.970000000    -3.892000000     4.133000000
O     0.509000000     3.635000000     1.424000000
H     1.097000000     3.100000000     0.890000000
H     0.944000000     3.693000000     2.275000000
O    -1.101000000     0.721000000    -5.254000000
H    -1.869000000     0.226000000    -4.966000000
H    -0.834000000     0.296000000    -6.069000000
O    -4.843000000     5.695000000    -0.103000000
H    -5.082000000     6.614000000     0.012000000
H    -3.942000000     5.639000000     0.214000000
O     1.764000000    -5.954000000     3.523000000
H     1.034000000    -5.334000000     3.518000000
H     2.233000000    -5.779000000     2.707000000
O     1.914000000    -3.063000000    -5.362000000
H     1.011000000    -3.162000000    -5.662000000
H     2.402000000    -3.730000000    -5.845000000
O    -4.263000000    -2.647000000    -1.331000000
H    -3.604000000    -2.821000000    -2.003000000
H    -4.043000000    -1.777000000    -0.998000000
O    -1.250000000     7.957000000    -2.188000000
H    -1.673000000     7.123000000    -2.392000000
H    -0.962000000     7.863000000    -1.280000000
O    -4.039000000    -0.275000000     6.001000000
H    -3.602000000    -0.070000000     5.174000000
H    -4.303000000     0.577000000     6.349000000
O    -2.056000000     6.120000000     0.959000000
H    -1.368000000     6.760000000     0.777000000
H    -1.637000000     5.475000000     1.529000000
O     4.822000000    -6.523000000     2.849000000
H     5.325000000    -5.711000000     2.782000000
H     4.127000000    -6.428000000     2.198000000
O     5.547000000    -3.705000000    -4.549000000
H     6.257000000    -4.184000000    -4.120000000
H     4.844000000    -3.688000000    -3.899000000
O    -0.220000000    -1.283000000     5.596000000
H    -0.150000000    -1.402000000     6.543000000
H    -0.152000000    -0.337000000     5.469000000
O     6.121000000    -4.151000000     3.238000000
H     6.583000000    -3.497000000     3.763000000
H     5.312000000    -3.715000000     2.969000000
O     1.151000000    -4.259000000    -2.895000000
H     1.493000000    -3.907000000    -2.073000000
H     1.613000000    -3.770000000    -3.576000000
O     2.573000000    -5.514000000     0.985000000
H     2.213000000    -4.700000000     0.633000000
H     3.368000000    -5.665000000     0.474000000
O    -5.356000000     1.501000000     2.481000000
H    -6.147000000     2.039000000     2.515000000
H    -5.679000000     0.607000000     2.364000000
O     3.916000000    -3.097000000     2.548000000
H     3.254000000    -3.203000000     1.865000000
H     3.413000000    -2.961000000     3.351000000
O     1.793000000     3.915000000     3.769000000
H     2.444000000     3.234000000     3.599000000
H     1.913000000     4.137000000     4.692000000
O     2.679000000    -0.532000000    -4.693000000
H     2.379000000    -1.426000000    -4.855000000
H     1.960000000     0.021000000    -4.998000000
O    -2.041000000     5.397000000    -2.419000000
H    -1.735000000     4.655000000    -2.942000000
H    -2.560000000     5.000000000    -1.720000000
O     4.847000000    -6.324000000    -0.650000000
H     5.587000000    -6.351000000    -0.044000000
H     4.945000000    -7.112000000    -1.183000000
O    -1.106000000    -5.767000000    -3.804000000
H    -0.914000000    -6.526000000    -4.354000000
H    -0.247000000    -5.396000000    -3.601000000
O     6.368000000    -2.809000000    -0.585000000
H     6.932000000    -2.992000000    -1.337000000
H     6.968000000    -2.765000000     0.159000000
O     4.082000000    -3.416000000    -2.118000000
H     4.749000000    -3.129000000    -1.494000000
H     3.291000000    -3.525000000    -1.590000000
O    -0.693000000     1.562000000     4.671000000
H    -0.942000000     2.484000000     4.613000000
H    -1.497000000     1.083000000     4.473000000
O     2.550000000     3.521000000    -2.358000000
H     2.140000000     4.181000000    -2.917000000
H     2.926000000     2.889000000    -2.971000000
O     4.122000000    -0.539000000    -2.161000000
H     3.486000000    -0.435000000    -2.869000000
H     4.079000000    -1.468000000    -1.934000000
O    -5.348000000     1.170000000    -1.975000000
H    -4.774000000     0.431000000    -2.177000000
H    -4.904000000     1.630000000    -1.262000000
O    -3.391000000    -0.464000000     0.215000000
H    -2.485000000    -0.168000000     0.305000000
H    -3.587000000    -0.890000000     1.049000000
O    -3.009000000     0.297000000     3.523000000
H    -3.184000000    -0.487000000     3.003000000
H    -3.708000000     0.906000000     3.281000000
O    -3.343000000    -2.266000000     2.434000000
H    -2.679000000    -2.744000000     2.931000000
H    -3.994000000    -2.929000000     2.206000000
O    -1.174000000    -4.479000000    -0.816000000
H    -1.478000000    -3.579000000    -0.934000000
H    -0.425000000    -4.558000000    -1.407000000
O     2.918000000    -6.446000000    -3.252000000
H     3.549000000    -5.989000000    -2.697000000
H     2.066000000    -6.114000000    -2.970000000
O    -1.175000000     2.999000000    -4.024000000
H    -1.061000000     2.172000000    -4.493000000
H    -0.315000000     3.417000000    -4.063000000
O    -2.379000000    -3.101000000    -3.385000000
H    -1.451000000    -3.272000000    -3.542000000
H    -2.616000000    -2.443000000    -4.039000000
O    -4.220000000     2.916000000     0.316000000
H    -4.076000000     2.576000000     1.199000000
H    -4.909000000     3.572000000     0.420000000
O     6.025000000    -1.065000000     1.687000000
H     5.412000000    -1.224000000     0.969000000
H     5.474000000    -1.018000000     2.468000000
O     1.837000000     1.640000000     5.610000000
H     0.945000000     1.506000000     5.292000000
H     2.381000000     1.594000000     4.824000000
O     2.369000000     2.026000000    -0.081000000
H     2.486000000     2.504000000    -0.903000000
H     1.712000000     1.360000000    -0.283000000
O     2.560000000    -2.036000000     4.791000000
H     1.654000000    -1.891000000     4.517000000
H     2.510000000    -2.135000000     5.742000000
O     3.269000000     6.073000000    -1.307000000
H     2.913000000     5.188000000    -1.392000000
H     2.809000000     6.582000000    -1.974000000
O     4.387000000    -0.142000000     4.911000000
H     4.130000000    -1.061000000     4.838000000
H     4.237000000     0.076000000     5.831000000
O     3.245000000     1.754000000     3.238000000
H     3.335000000     1.462000000     2.330000000
H     3.756000000     1.122000000     3.744000000
O     3.498000000     5.487000000     2.039000000
H     4.036000000     4.993000000     1.420000000
H     2.890000000     4.840000000     2.397000000
O    -0.651000000    -4.194000000     2.488000000
H    -0.997000000    -4.633000000     1.711000000
H     0.198000000    -3.849000000     2.209000000
O    -1.489000000     4.378000000     3.192000000
H    -0.928000000     3.855000000     2.620000000
H    -0.879000000     4.890000000     3.723000000
