158
-3027.91727
C     1.438000000     0.117000000    -0.072000000
H     2.489000000     0.163000000    -0.346000000
C     0.476000000     0.760000000    -0.866000000
H     0.806000000     1.435000000    -1.651000000
C    -0.833000000     0.595000000    -0.650000000
H    -1.523000000     1.179000000    -1.223000000
C    -1.252000000    -0.140000000     0.453000000
H    -2.310000000    -0.369000000     0.548000000
C    -0.396000000    -0.739000000     1.304000000
H    -0.745000000    -1.280000000     2.179000000
C     0.986000000    -0.716000000     0.946000000
C     2.047000000    -1.591000000     1.635000000
O     3.166000000    -1.770000000     1.155000000
O     1.627000000    -2.342000000     2.498000000
O     3.816000000    -2.789000000     3.846000000
H     3.142000000    -2.706000000     3.172000000
H     3.461000000    -2.318000000     4.600000000
O    -4.300000000    -0.396000000     3.612000000
H    -4.752000000    -0.967000000     4.233000000
H    -4.750000000    -0.542000000     2.781000000
O     1.412000000     4.124000000    -0.869000000
H     0.552000000     4.168000000    -1.289000000
H     1.822000000     4.964000000    -1.077000000
O    -2.060000000     3.671000000     2.664000000
H    -1.305000000     4.172000000     2.356000000
H    -1.680000000     2.890000000     3.066000000
O     2.263000000     1.573000000    -3.751000000
H     2.282000000     2.458000000    -3.387000000
H     3.121000000     1.207000000    -3.534000000
O     3.222000000    -2.742000000     6.611000000
H     3.573000000    -2.325000000     7.398000000
H     2.333000000    -2.396000000     6.533000000
O    -2.543000000     2.784000000    -4.027000000
H    -3.329000000     2.858000000    -3.486000000
H    -2.394000000     1.842000000    -4.105000000
O     1.554000000    -2.457000000    -1.703000000
H     2.363000000    -1.951000000    -1.781000000
H     1.179000000    -2.183000000    -0.866000000
O    -1.768000000     1.010000000     4.210000000
H    -1.239000000     0.290000000     4.553000000
H    -2.458000000     0.581000000     3.704000000
O     3.816000000     2.815000000    -0.249000000
H     2.940000000     3.201000000    -0.250000000
H     4.302000000     3.320000000    -0.902000000
O    -1.610000000    -0.751000000    -7.617000000
H    -2.208000000    -1.153000000    -8.247000000
H    -2.181000000    -0.421000000    -6.923000000
O     5.478000000    -4.596000000     5.207000000
H     4.714000000    -4.070000000     4.968000000
H     5.727000000    -4.275000000     6.073000000
O     3.596000000    -5.196000000    -1.383000000
H     2.935000000    -5.855000000    -1.594000000
H     4.337000000    -5.410000000    -1.949000000
O    -5.856000000    -0.593000000     1.353000000
H    -6.544000000    -1.222000000     1.137000000
H    -5.417000000    -0.423000000     0.520000000
O    -4.602000000    -0.697000000    -1.634000000
H    -5.070000000    -1.232000000    -2.276000000
H    -3.711000000    -1.048000000    -1.634000000
O    -6.162000000     1.895000000    -4.779000000
H    -5.775000000     2.471000000    -5.438000000
H    -5.616000000     2.019000000    -4.003000000
O    -4.609000000     2.794000000     1.383000000
H    -3.964000000     2.132000000     1.134000000
H    -4.202000000     3.262000000     2.112000000
O     0.468000000    -4.461000000     0.250000000
H     1.243000000    -4.257000000    -0.273000000
H     0.789000000    -5.049000000     0.934000000
O     2.275000000     2.277000000     2.580000000
H     1.752000000     2.186000000     1.784000000
H     3.174000000     2.370000000     2.267000000
O     4.182000000    -1.676000000    -1.469000000
H     4.974000000    -1.141000000    -1.519000000
H     3.945000000    -1.667000000    -0.542000000
O    -2.498000000    -0.039000000    -4.490000000
H    -3.072000000    -0.709000000    -4.861000000
H    -1.984000000    -0.504000000    -3.830000000
O     3.607000000    -4.385000000     1.363000000
H     3.539000000    -3.435000000     1.264000000
H     3.666000000    -4.716000000     0.467000000
O     6.491000000    -1.621000000     4.503000000
H     5.749000000    -1.909000000     3.972000000
H     6.481000000    -0.667000000     4.432000000
O     0.805000000    -6.571000000     2.320000000
H     0.437000000    -7.397000000     2.634000000
H     0.516000000    -5.921000000     2.960000000
O    -4.066000000     5.178000000    -0.331000000
H    -4.482000000     4.521000000     0.227000000
H    -4.790000000     5.724000000    -0.639000000
O    -3.037000000    -4.508000000     3.899000000
H    -3.451000000    -5.371000000     3.898000000
H    -2.783000000    -4.363000000     2.987000000
O    -5.038000000     2.076000000    -2.388000000
H    -5.731000000     2.297000000    -1.766000000
H    -4.757000000     1.198000000    -2.131000000
O     6.225000000    -4.311000000     2.161000000
H     6.213000000    -4.472000000     3.104000000
H     5.344000000    -4.542000000     1.867000000
O     5.635000000    -1.333000000     1.443000000
H     6.049000000    -2.189000000     1.548000000
H     4.695000000    -1.515000000     1.475000000
O     4.999000000     1.551000000     1.755000000
H     4.922000000     0.602000000     1.650000000
H     4.684000000     1.910000000     0.926000000
O    -4.403000000     0.219000000    -6.783000000
H    -5.104000000     0.533000000    -7.354000000
H    -4.134000000     0.993000000    -6.287000000
O    -0.090000000     1.805000000    -5.385000000
H    -0.750000000     1.222000000    -5.011000000
H     0.591000000     1.857000000    -4.715000000
O     1.807000000    -5.720000000     5.477000000
H     1.876000000    -5.009000000     6.114000000
H     1.316000000    -5.341000000     4.748000000
O     0.293000000    -3.987000000     3.847000000
H    -0.466000000    -3.404000000     3.864000000
H     0.931000000    -3.533000000     3.297000000
O    -2.951000000    -3.670000000    -1.265000000
H    -2.534000000    -4.169000000    -1.968000000
H    -3.618000000    -4.261000000    -0.915000000
O     8.085000000    -0.076000000     1.017000000
H     7.163000000    -0.279000000     1.175000000
H     8.165000000    -0.052000000     0.064000000
O     4.947000000    -3.152000000    -3.651000000
H     4.487000000    -2.820000000    -2.880000000
H     4.828000000    -2.471000000    -4.313000000
O    -2.166000000    -3.846000000     1.352000000
H    -1.268000000    -4.113000000     1.153000000
H    -2.500000000    -3.494000000     0.527000000
O     2.643000000     4.649000000    -4.595000000
H     1.778000000     4.627000000    -4.186000000
H     2.756000000     5.559000000    -4.868000000
O     6.946000000    -4.971000000    -0.357000000
H     6.513000000    -4.512000000     0.362000000
H     6.999000000    -5.881000000    -0.063000000
O     0.118000000     4.506000000    -3.487000000
H    -0.339000000     3.714000000    -3.768000000
H    -0.561000000     5.043000000    -3.079000000
O     5.277000000     1.220000000    -3.200000000
H     5.583000000     2.113000000    -3.358000000
H     6.004000000     0.795000000    -2.744000000
O     1.949000000     0.274000000     4.899000000
H     2.745000000     0.428000000     5.409000000
H     2.022000000     0.872000000     4.155000000
O     0.425000000    -1.358000000     6.232000000
H     1.007000000    -0.773000000     5.747000000
H    -0.073000000    -1.816000000     5.554000000
O    -2.524000000     6.039000000    -2.737000000
H    -2.148000000     6.916000000    -2.665000000
H    -2.904000000     5.869000000    -1.875000000
O    -1.889000000    -2.005000000     4.117000000
H    -2.333000000    -2.840000000     3.972000000
H    -2.533000000    -1.344000000     3.862000000
O    -2.997000000     5.581000000    -5.242000000
H    -3.051000000     4.627000000    -5.299000000
H    -2.841000000     5.757000000    -4.314000000
O    -1.193000000    -1.524000000    -3.018000000
H    -1.587000000    -2.261000000    -2.552000000
H    -0.261000000    -1.575000000    -2.803000000
