158
-3024.63681
C     1.490000000     0.032000000    -0.066000000
H     2.559000000     0.187000000     0.054000000
C     0.666000000     0.835000000     0.830000000
H     1.154000000     1.372000000     1.639000000
C    -0.724000000     0.739000000     0.732000000
H    -1.422000000     1.214000000     1.488000000
C    -1.242000000    -0.072000000    -0.263000000
H    -2.323000000    -0.185000000    -0.304000000
C    -0.472000000    -0.883000000    -1.102000000
H    -0.975000000    -1.567000000    -1.781000000
C     0.927000000    -0.817000000    -1.020000000
C     1.809000000    -1.662000000    -1.923000000
O     2.998000000    -1.514000000    -1.826000000
O     1.269000000    -2.455000000    -2.708000000
O     3.485000000    -4.419000000    -1.780000000
H     2.967000000    -4.288000000    -2.574000000
H     3.403000000    -3.594000000    -1.301000000
O    -6.870000000    -0.108000000     2.362000000
H    -7.186000000    -0.936000000     2.723000000
H    -6.575000000    -0.328000000     1.479000000
O    -2.095000000     3.093000000    -3.019000000
H    -1.390000000     2.828000000    -2.428000000
H    -2.383000000     3.941000000    -2.681000000
O     0.387000000     5.539000000     4.482000000
H    -0.258000000     6.243000000     4.421000000
H    -0.074000000     4.764000000     4.161000000
O    -1.330000000    -0.263000000    -5.585000000
H    -2.156000000    -0.003000000    -5.177000000
H    -1.378000000     0.092000000    -6.472000000
O    -5.386000000    -2.450000000    -1.395000000
H    -5.961000000    -2.908000000    -2.008000000
H    -5.820000000    -1.611000000    -1.241000000
O     5.469000000    -2.937000000    -5.516000000
H     5.490000000    -2.417000000    -6.319000000
H     5.199000000    -2.319000000    -4.837000000
O    -3.658000000     3.932000000     2.471000000
H    -4.075000000     3.070000000     2.484000000
H    -3.646000000     4.205000000     3.388000000
O     6.755000000    -0.885000000    -2.192000000
H     6.749000000    -1.714000000    -1.714000000
H     7.529000000    -0.938000000    -2.753000000
O     4.820000000    -0.800000000     0.093000000
H     4.345000000    -1.251000000    -0.606000000
H     5.675000000    -1.229000000     0.116000000
O     4.591000000    -0.786000000    -3.873000000
H     5.333000000    -0.860000000    -3.273000000
H     3.832000000    -1.043000000    -3.349000000
O     6.581000000    -3.137000000    -0.402000000
H     7.460000000    -3.357000000    -0.710000000
H     6.120000000    -3.976000000    -0.377000000
O     2.041000000    -4.901000000    -4.301000000
H     1.210000000    -5.336000000    -4.113000000
H     1.815000000    -3.974000000    -4.379000000
O    -5.007000000    -1.128000000     5.707000000
H    -4.123000000    -1.168000000     5.341000000
H    -5.354000000    -0.289000000     5.403000000
O    -0.177000000    -3.027000000    -4.833000000
H    -0.330000000    -2.280000000    -5.412000000
H     0.145000000    -2.638000000    -4.020000000
O     6.079000000     2.420000000     0.552000000
H     6.589000000     2.260000000     1.345000000
H     5.965000000     1.553000000     0.161000000
O    -0.489000000    -6.308000000    -3.979000000
H    -0.977000000    -6.091000000    -4.773000000
H    -0.955000000    -5.851000000    -3.279000000
O     0.833000000    -2.797000000     3.847000000
H     0.545000000    -2.801000000     2.934000000
H     0.022000000    -2.747000000     4.353000000
O    -0.365000000    -3.971000000    -0.860000000
H    -1.115000000    -3.474000000    -1.186000000
H     0.358000000    -3.719000000    -1.435000000
O    -5.538000000     1.598000000     5.098000000
H    -5.654000000     1.774000000     6.032000000
H    -5.422000000     2.463000000     4.704000000
O     1.774000000     0.192000000     4.385000000
H     0.886000000     0.539000000     4.470000000
H     1.657000000    -0.666000000     3.978000000
O     0.556000000    -6.920000000    -1.121000000
H    -0.062000000    -6.190000000    -1.091000000
H     0.467000000    -7.345000000    -0.268000000
O    -1.052000000    -5.070000000     1.733000000
H    -0.879000000    -4.758000000     0.845000000
H    -1.887000000    -4.667000000     1.970000000
O    -0.601000000     1.666000000     4.776000000
H    -0.791000000     2.004000000     5.652000000
H    -0.801000000     2.396000000     4.190000000
O    -3.223000000     0.349000000    -3.710000000
H    -3.889000000     0.533000000    -3.047000000
H    -2.458000000     0.849000000    -3.426000000
O    -5.126000000     3.501000000    -0.387000000
H    -4.399000000     3.500000000     0.235000000
H    -5.844000000     3.925000000     0.083000000
O    -3.094000000     6.600000000     1.744000000
H    -3.811000000     5.977000000     1.860000000
H    -2.462000000     6.138000000     1.193000000
O    -3.579000000    -2.304000000    -4.253000000
H    -3.352000000    -1.374000000    -4.269000000
H    -3.677000000    -2.511000000    -3.324000000
O    -1.153000000     4.934000000     0.275000000
H    -1.660000000     4.813000000    -0.528000000
H    -0.271000000     4.636000000     0.049000000
O    -2.765000000     0.128000000     4.757000000
H    -3.245000000     0.729000000     4.188000000
H    -1.872000000     0.473000000     4.771000000
O     4.197000000    -2.524000000     2.688000000
H     4.226000000    -1.858000000     2.001000000
H     4.692000000    -2.142000000     3.413000000
O    -2.774000000    -3.039000000    -0.834000000
H    -3.646000000    -2.713000000    -1.057000000
H    -2.836000000    -3.987000000    -0.949000000
O    -3.355000000     3.689000000     5.074000000
H    -2.967000000     3.125000000     5.743000000
H    -3.450000000     4.539000000     5.503000000
O     2.596000000     2.515000000     3.261000000
H     2.180000000     1.768000000     3.691000000
H     2.364000000     3.266000000     3.808000000
O     2.235000000     1.157000000    -3.484000000
H     2.609000000     0.424000000    -2.996000000
H     1.624000000     1.566000000    -2.871000000
O    -1.816000000    -2.938000000     4.709000000
H    -2.589000000    -3.373000000     4.351000000
H    -2.101000000    -2.040000000     4.876000000
O     0.180000000    -5.094000000    -7.034000000
H     0.631000000    -4.414000000    -6.533000000
H    -0.703000000    -5.117000000    -6.665000000
O     0.334000000     2.551000000    -1.603000000
H     0.073000000     1.936000000    -0.917000000
H     0.856000000     3.211000000    -1.147000000
O    -4.276000000     1.175000000     1.997000000
H    -5.091000000     0.861000000     2.388000000
H    -3.825000000     0.379000000     1.714000000
O     4.040000000     3.923000000     1.480000000
H     4.791000000     3.383000000     1.233000000
H     3.522000000     3.363000000     2.058000000
O     5.154000000    -6.149000000    -0.703000000
H     4.493000000    -5.664000000    -1.198000000
H     4.665000000    -6.560000000     0.010000000
O    -0.723000000    -2.082000000     1.768000000
H    -0.770000000    -1.203000000     1.392000000
H    -0.663000000    -2.664000000     1.010000000
O    -2.967000000     5.312000000    -1.662000000
H    -2.663000000     6.082000000    -2.143000000
H    -3.922000000     5.369000000    -1.699000000
O    -4.968000000     1.202000000    -1.798000000
H    -5.792000000     0.808000000    -1.512000000
H    -4.805000000     1.902000000    -1.167000000
O    -3.747000000    -1.478000000     2.068000000
H    -4.014000000    -2.257000000     1.579000000
H    -2.821000000    -1.622000000     2.262000000
O    -1.087000000     3.608000000     2.930000000
H    -2.028000000     3.607000000     2.758000000
H    -0.716000000     4.140000000     2.226000000
O     1.576000000     4.363000000     0.078000000
H     2.357000000     4.190000000     0.604000000
H     1.825000000     5.097000000    -0.485000000
O     2.978000000     0.264000000    -6.348000000
H     3.880000000     0.364000000    -6.650000000
H     3.054000000     0.141000000    -5.401000000
