158
-3062.37568
C     1.288000000     0.112000000     0.722000000
H     2.191000000     0.435000000     1.233000000
C     0.164000000     0.847000000     0.968000000
H     0.192000000     1.657000000     1.693000000
C    -1.032000000     0.639000000     0.201000000
H    -1.932000000     1.249000000     0.369000000
C    -1.008000000    -0.261000000    -0.869000000
H    -1.841000000    -0.489000000    -1.529000000
C     0.113000000    -1.054000000    -1.023000000
H     0.134000000    -1.864000000    -1.747000000
C     1.222000000    -0.901000000    -0.207000000
C     2.400000000    -1.741000000    -0.512000000
O     3.416000000    -1.686000000     0.261000000
O     2.357000000    -2.516000000    -1.447000000
O     6.131000000     0.576000000     1.673000000
H     6.655000000    -0.083000000     2.129000000
H     6.223000000     1.365000000     2.207000000
O    -1.172000000     4.965000000    -2.384000000
H    -1.059000000     5.914000000    -2.338000000
H    -0.501000000     4.673000000    -3.001000000
O     8.219000000    -0.439000000    -1.961000000
H     8.508000000    -1.102000000    -1.333000000
H     7.312000000    -0.256000000    -1.716000000
O    -4.636000000    -4.347000000    -3.145000000
H    -4.461000000    -3.744000000    -2.422000000
H    -4.235000000    -3.930000000    -3.907000000
O    -0.237000000    -3.949000000    -3.912000000
H     0.099000000    -4.231000000    -3.061000000
H    -0.867000000    -4.627000000    -4.157000000
O    -2.561000000     1.073000000     5.938000000
H    -2.288000000     1.767000000     6.538000000
H    -1.832000000     0.452000000     5.943000000
O     1.434000000    -4.875000000     0.008000000
H     1.888000000    -4.447000000    -0.718000000
H     0.511000000    -4.862000000    -0.245000000
O    -6.715000000     2.016000000     0.488000000
H    -7.539000000     1.623000000     0.775000000
H    -6.654000000     1.794000000    -0.441000000
O    -6.401000000     1.410000000    -2.207000000
H    -7.136000000     1.209000000    -2.785000000
H    -5.688000000     0.856000000    -2.525000000
O    -3.173000000     4.973000000     1.590000000
H    -3.549000000     4.094000000     1.636000000
H    -2.259000000     4.830000000     1.343000000
O     4.962000000    -3.796000000    -1.682000000
H     4.181000000    -3.320000000    -1.401000000
H     5.174000000    -3.426000000    -2.538000000
O     4.727000000     1.513000000    -3.031000000
H     3.907000000     1.286000000    -3.468000000
H     4.774000000     0.917000000    -2.284000000
O    -4.747000000    -0.337000000    -3.402000000
H    -3.919000000     0.090000000    -3.182000000
H    -4.847000000    -1.021000000    -2.741000000
O     3.567000000    -5.369000000     1.782000000
H     2.832000000    -4.994000000     1.296000000
H     4.272000000    -4.730000000     1.681000000
O    -4.730000000    -2.330000000    -1.201000000
H    -5.343000000    -1.910000000    -0.598000000
H    -4.017000000    -2.639000000    -0.642000000
O     1.845000000    -2.441000000    -4.165000000
H     1.138000000    -3.050000000    -4.377000000
H     2.119000000    -2.690000000    -3.282000000
O     5.684000000    -0.285000000    -0.908000000
H     5.066000000    -0.913000000    -0.532000000
H     5.888000000     0.311000000    -0.187000000
O     3.536000000    -0.496000000     2.884000000
H     4.119000000     0.082000000     2.391000000
H     3.164000000    -1.081000000     2.223000000
O    -1.048000000    -5.062000000    -1.094000000
H    -1.602000000    -5.843000000    -1.088000000
H    -1.593000000    -4.379000000    -0.703000000
O    -6.623000000    -0.354000000     3.446000000
H    -5.785000000     0.090000000     3.320000000
H    -6.478000000    -0.930000000     4.197000000
O    -5.692000000     4.552000000    -0.468000000
H    -4.781000000     4.284000000    -0.594000000
H    -6.173000000     3.730000000    -0.376000000
O    -0.713000000     3.148000000     6.297000000
H    -0.751000000     3.484000000     5.401000000
H     0.164000000     2.774000000     6.376000000
O     2.002000000     0.339000000    -3.637000000
H     1.470000000     0.537000000    -4.407000000
H     1.938000000    -0.612000000    -3.540000000
O    -1.273000000    -1.863000000     1.777000000
H    -1.164000000    -1.503000000     2.658000000
H    -0.786000000    -1.264000000     1.212000000
O    -0.432000000    -1.104000000     4.169000000
H     0.115000000    -0.419000000     3.785000000
H    -0.382000000    -0.949000000     5.113000000
O    -4.022000000     3.975000000     5.164000000
H    -3.916000000     3.165000000     5.663000000
H    -4.967000000     4.127000000     5.153000000
O    -0.414000000     0.290000000    -5.731000000
H    -0.519000000     1.129000000    -6.179000000
H     0.042000000    -0.264000000    -6.365000000
O    -0.072000000     4.459000000     3.630000000
H     0.866000000     4.315000000     3.505000000
H    -0.462000000     4.248000000     2.782000000
O    -4.128000000     2.368000000     1.500000000
H    -3.747000000     2.736000000     0.703000000
H    -5.034000000     2.171000000     1.263000000
O     0.302000000    -3.641000000     3.008000000
H    -0.235000000    -3.188000000     3.659000000
H    -0.155000000    -3.496000000     2.179000000
O    -1.808000000    -1.459000000    -4.131000000
H    -1.125000000    -2.108000000    -3.958000000
H    -1.355000000    -0.752000000    -4.591000000
O     1.385000000     2.091000000    -1.501000000
H     1.484000000     1.358000000    -2.108000000
H     0.600000000     1.880000000    -0.996000000
O    -3.464000000    -2.176000000     4.633000000
H    -3.741000000    -1.404000000     4.139000000
H    -2.554000000    -2.315000000     4.371000000
O     5.237000000    -3.239000000     1.706000000
H     4.625000000    -2.797000000     1.117000000
H     5.090000000    -2.825000000     2.557000000
O    -2.809000000     1.947000000    -3.530000000
H    -3.350000000     1.936000000    -4.319000000
H    -1.935000000     2.184000000    -3.841000000
O     2.462000000     3.893000000     0.190000000
H     1.969000000     4.709000000     0.098000000
H     2.010000000     3.274000000    -0.383000000
O    -3.542000000    -2.818000000    -5.798000000
H    -3.157000000    -2.238000000    -5.141000000
H    -3.588000000    -2.284000000    -6.591000000
O     5.077000000    -2.749000000    -4.716000000
H     5.495000000    -3.415000000    -5.262000000
H     4.142000000    -2.948000000    -4.770000000
O     4.192000000    -1.517000000     5.515000000
H     4.330000000    -1.428000000     4.572000000
H     3.631000000    -2.287000000     5.604000000
O    -4.179000000     0.445000000     3.545000000
H    -3.977000000     1.119000000     2.895000000
H    -3.766000000     0.758000000     4.350000000
O    -5.937000000    -1.424000000     0.981000000
H    -6.148000000    -2.313000000     1.268000000
H    -6.472000000    -0.859000000     1.537000000
O     4.772000000     4.025000000    -1.455000000
H     3.910000000     4.039000000    -1.038000000
H     4.909000000     3.108000000    -1.692000000
O     2.285000000     3.693000000     3.036000000
H     2.506000000     3.745000000     2.107000000
H     3.131000000     3.685000000     3.484000000
O     1.679000000     0.802000000     4.286000000
H     1.924000000     1.659000000     3.937000000
H     2.272000000     0.189000000     3.852000000
O    -0.670000000     4.231000000     0.688000000
H    -0.872000000     3.979000000    -0.213000000
H    -0.051000000     4.956000000     0.602000000
O    -3.132000000     3.409000000    -0.934000000
H    -2.522000000     4.073000000    -1.256000000
H    -3.113000000     2.722000000    -1.601000000
O    -2.795000000    -3.852000000     0.653000000
H    -2.451000000    -3.272000000     1.332000000
H    -2.851000000    -4.709000000     1.076000000
O     7.777000000    -2.378000000     0.211000000
H     7.501000000    -2.498000000     1.120000000
H     7.028000000    -2.671000000    -0.307000000
