158
-3022.03589
C     1.385000000    -0.514000000     0.139000000
H     2.407000000    -0.752000000     0.421000000
C     0.884000000     0.702000000     0.663000000
H     1.474000000     1.319000000     1.336000000
C    -0.387000000     1.120000000     0.305000000
H    -0.903000000     2.071000000     0.714000000
C    -1.300000000     0.186000000    -0.331000000
H    -2.352000000     0.407000000    -0.489000000
C    -0.776000000    -1.015000000    -0.847000000
H    -1.440000000    -1.721000000    -1.337000000
C     0.586000000    -1.364000000    -0.564000000
C     1.144000000    -2.745000000    -0.874000000
O     2.313000000    -3.014000000    -0.632000000
O     0.428000000    -3.562000000    -1.455000000
O     2.885000000    -5.521000000     0.181000000
H     2.362000000    -5.985000000    -0.473000000
H     2.826000000    -4.600000000    -0.073000000
O    -2.968000000     3.732000000    -4.504000000
H    -2.225000000     3.598000000    -5.092000000
H    -3.033000000     2.915000000    -4.010000000
O    -1.390000000     6.454000000     4.129000000
H    -1.805000000     7.265000000     3.835000000
H    -1.643000000     5.804000000     3.474000000
O     2.269000000     6.685000000     0.337000000
H     1.706000000     6.958000000     1.061000000
H     2.237000000     7.416000000    -0.280000000
O     2.707000000     4.000000000    -0.092000000
H     2.500000000     4.916000000     0.093000000
H     2.650000000     3.564000000     0.758000000
O    -2.104000000     1.120000000    -3.415000000
H    -1.159000000     1.116000000    -3.261000000
H    -2.242000000     0.442000000    -4.077000000
O    -6.165000000    -0.803000000     0.544000000
H    -6.946000000    -0.873000000    -0.005000000
H    -5.502000000    -0.420000000    -0.031000000
O    -6.535000000     1.158000000    -3.840000000
H    -5.981000000     1.267000000    -4.613000000
H    -5.919000000     1.108000000    -3.109000000
O     3.538000000    -4.441000000    -4.971000000
H     2.642000000    -4.670000000    -4.724000000
H     3.780000000    -3.739000000    -4.367000000
O     3.890000000    -6.357000000    -2.345000000
H     4.281000000    -5.574000000    -1.959000000
H     3.169000000    -6.026000000    -2.881000000
O    -3.863000000     2.459000000     3.256000000
H    -4.702000000     2.036000000     3.074000000
H    -4.041000000     3.032000000     4.002000000
O     5.147000000     1.130000000    -0.856000000
H     5.482000000     1.988000000    -0.596000000
H     5.134000000     0.623000000    -0.044000000
O     4.162000000    -2.821000000     1.175000000
H     3.484000000    -2.790000000     0.499000000
H     4.971000000    -2.994000000     0.694000000
O     4.269000000    -3.480000000    -2.508000000
H     5.028000000    -3.238000000    -1.978000000
H     3.528000000    -3.431000000    -1.903000000
O     6.561000000    -2.582000000    -1.255000000
H     6.488000000    -1.773000000    -1.763000000
H     7.123000000    -3.147000000    -1.785000000
O     1.399000000    -5.178000000    -3.365000000
H     0.613000000    -5.645000000    -3.649000000
H     1.089000000    -4.576000000    -2.689000000
O     3.057000000    -4.629000000     3.031000000
H     3.516000000    -3.841000000     2.739000000
H     2.703000000    -5.011000000     2.227000000
O    -4.481000000    -4.239000000    -0.342000000
H    -4.404000000    -3.395000000    -0.788000000
H    -3.605000000    -4.622000000    -0.401000000
O    -0.441000000    -2.438000000    -3.747000000
H     0.106000000    -1.693000000    -3.997000000
H    -0.211000000    -2.608000000    -2.833000000
O     3.649000000     2.391000000     2.150000000
H     4.546000000     2.223000000     2.438000000
H     3.147000000     1.647000000     2.485000000
O     1.552000000    -2.179000000     4.811000000
H     1.965000000    -1.329000000     4.664000000
H     0.661000000    -1.968000000     5.092000000
O    -2.351000000    -3.908000000    -2.186000000
H    -2.969000000    -4.262000000    -2.826000000
H    -1.489000000    -4.084000000    -2.563000000
O     3.247000000     0.230000000    -2.402000000
H     3.939000000    -0.204000000    -2.901000000
H     3.627000000     0.366000000    -1.534000000
O    -0.072000000    -6.875000000     1.914000000
H    -0.950000000    -6.513000000     2.036000000
H     0.511000000    -6.120000000     1.994000000
O    -0.775000000    -3.997000000     0.956000000
H    -0.554000000    -3.719000000     0.067000000
H    -0.840000000    -3.181000000     1.453000000
O    -1.021000000     2.664000000     4.131000000
H    -1.778000000     2.094000000     3.992000000
H    -1.184000000     3.420000000     3.568000000
O    -4.266000000     0.679000000    -1.909000000
H    -4.491000000     1.534000000    -1.542000000
H    -3.422000000     0.818000000    -2.339000000
O    -4.890000000     6.170000000     0.290000000
H    -5.391000000     5.379000000     0.485000000
H    -4.057000000     5.847000000    -0.055000000
O    -4.328000000    -1.902000000    -2.179000000
H    -3.490000000    -2.362000000    -2.129000000
H    -4.095000000    -0.975000000    -2.137000000
O    -2.819000000     4.892000000    -0.534000000
H    -3.309000000     4.161000000    -0.909000000
H    -1.931000000     4.784000000    -0.873000000
O    -2.836000000     0.093000000     3.729000000
H    -3.638000000    -0.292000000     4.083000000
H    -3.128000000     0.893000000     3.292000000
O     2.993000000    -0.104000000     3.469000000
H     2.391000000    -0.689000000     3.010000000
H     3.769000000    -0.640000000     3.633000000
O     5.856000000    -0.482000000     1.236000000
H     6.299000000    -0.114000000     2.001000000
H     5.458000000    -1.291000000     1.556000000
O     2.552000000     7.427000000     3.105000000
H     3.478000000     7.666000000     3.105000000
H     2.548000000     6.486000000     2.927000000
O     2.276000000     2.830000000    -2.354000000
H     2.584000000     1.924000000    -2.385000000
H     2.338000000     3.073000000    -1.430000000
O    -0.861000000    -1.383000000     5.468000000
H    -1.612000000    -1.954000000     5.306000000
H    -1.109000000    -0.544000000     5.080000000
O     0.815000000     4.053000000    -4.525000000
H     1.074000000     3.505000000    -3.784000000
H    -0.012000000     3.675000000    -4.824000000
O    -1.674000000    -4.282000000    -5.275000000
H    -1.421000000    -3.729000000    -4.536000000
H    -2.560000000    -3.995000000    -5.498000000
O     0.805000000    -8.755000000    -2.534000000
H     0.451000000    -8.174000000    -1.860000000
H     1.753000000    -8.721000000    -2.406000000
O     0.711000000     0.148000000    -3.440000000
H     1.485000000     0.198000000    -2.880000000
H     1.058000000     0.171000000    -4.331000000
O     2.722000000     4.748000000     3.252000000
H     3.021000000     3.988000000     2.753000000
H     3.345000000     4.820000000     3.975000000
O     5.503000000    -6.178000000     0.116000000
H     4.584000000    -5.909000000     0.104000000
H     5.658000000    -6.461000000     1.017000000
O    -1.474000000    -1.536000000     1.949000000
H    -1.292000000    -0.907000000     1.251000000
H    -1.780000000    -0.999000000     2.681000000
O    -1.270000000     2.375000000     6.910000000
H    -0.874000000     2.320000000     6.040000000
H    -0.615000000     2.823000000     7.444000000
O    -5.063000000     3.103000000    -1.134000000
H    -5.672000000     3.748000000    -1.492000000
H    -5.476000000     2.808000000    -0.322000000
O    -3.096000000    -4.513000000     2.671000000
H    -2.434000000    -4.334000000     2.003000000
H    -3.850000000    -3.985000000     2.408000000
O    -2.049000000     4.566000000     2.116000000
H    -2.806000000     4.122000000     2.499000000
H    -2.334000000     4.804000000     1.233000000
O    -0.233000000     5.148000000    -1.801000000
H     0.533000000     4.678000000    -1.471000000
H     0.131000000     5.895000000    -2.278000000
