158
-3072.20586
C     1.400000000     0.204000000    -0.124000000
H     2.458000000     0.431000000    -0.021000000
C     0.523000000     1.071000000     0.496000000
H     0.864000000     2.018000000     0.906000000
C    -0.786000000     0.812000000     0.501000000
H    -1.557000000     1.669000000     0.809000000
C    -1.236000000    -0.408000000     0.038000000
H    -2.275000000    -0.691000000     0.185000000
C    -0.347000000    -1.394000000    -0.471000000
H    -0.705000000    -2.337000000    -0.876000000
C     1.019000000    -1.070000000    -0.607000000
C     1.975000000    -2.005000000    -1.266000000
O     3.162000000    -1.620000000    -1.418000000
O     1.616000000    -3.083000000    -1.697000000
O     4.004000000     1.193000000     2.321000000
H     4.738000000     0.822000000     1.831000000
H     4.416000000     1.697000000     3.023000000
O    -1.834000000     3.362000000    -3.765000000
H    -1.346000000     4.062000000    -4.198000000
H    -1.160000000     2.756000000    -3.457000000
O    -1.878000000    -4.001000000    -4.885000000
H    -2.225000000    -3.284000000    -5.415000000
H    -2.568000000    -4.664000000    -4.897000000
O     2.938000000     3.988000000     4.119000000
H     2.627000000     3.708000000     3.258000000
H     3.737000000     4.482000000     3.937000000
O    -1.746000000     2.817000000     4.893000000
H    -2.481000000     2.218000000     4.761000000
H    -1.069000000     2.279000000     5.302000000
O     0.505000000    -4.898000000     0.019000000
H     1.089000000    -4.673000000     0.743000000
H     0.662000000    -4.217000000    -0.635000000
O    -5.662000000     0.880000000     2.072000000
H    -5.140000000     0.150000000     1.740000000
H    -6.566000000     0.640000000     1.869000000
O    -7.748000000     0.615000000    -0.554000000
H    -6.792000000     0.574000000    -0.531000000
H    -8.026000000    -0.301000000    -0.574000000
O    -4.637000000     4.907000000     3.206000000
H    -5.192000000     4.210000000     3.557000000
H    -3.884000000     4.448000000     2.834000000
O    -1.132000000    -1.281000000     5.416000000
H    -1.672000000    -0.502000000     5.280000000
H    -1.707000000    -2.012000000     5.190000000
O     4.792000000    -6.478000000    -0.966000000
H     5.044000000    -5.684000000    -0.493000000
H     3.955000000    -6.257000000    -1.375000000
O     5.704000000    -1.618000000    -0.495000000
H     4.764000000    -1.458000000    -0.584000000
H     5.986000000    -1.877000000    -1.372000000
O     5.252000000    -0.805000000    -5.220000000
H     4.519000000    -1.276000000    -5.618000000
H     5.056000000     0.119000000    -5.376000000
O     0.218000000    -2.471000000    -4.088000000
H    -0.538000000    -3.016000000    -4.306000000
H     0.359000000    -2.621000000    -3.153000000
O     6.495000000     0.283000000     1.195000000
H     6.338000000    -0.520000000     0.698000000
H     7.125000000     0.028000000     1.869000000
O     5.232000000    -2.801000000    -2.871000000
H     5.004000000    -2.185000000    -3.568000000
H     4.629000000    -2.589000000    -2.158000000
O     3.851000000    -1.920000000     2.406000000
H     4.498000000    -2.262000000     3.022000000
H     4.021000000    -0.978000000     2.378000000
O    -1.552000000    -4.915000000    -2.247000000
H    -1.521000000    -4.642000000    -3.164000000
H    -0.635000000    -5.032000000    -2.000000000
O    -6.613000000     3.310000000    -1.218000000
H    -5.850000000     2.733000000    -1.269000000
H    -6.779000000     3.405000000    -0.281000000
O     2.850000000     0.973000000    -2.912000000
H     3.522000000     1.148000000    -2.252000000
H     2.781000000     0.018000000    -2.936000000
O    -2.269000000    -3.931000000     2.121000000
H    -1.662000000    -3.197000000     2.025000000
H    -1.785000000    -4.575000000     2.639000000
O    -0.444000000    -1.748000000     2.558000000
H     0.349000000    -1.575000000     2.050000000
H    -0.563000000    -0.961000000     3.090000000
O    -4.303000000    -0.429000000    -2.430000000
H    -5.014000000    -0.695000000    -3.013000000
H    -4.229000000    -1.147000000    -1.801000000
O    -1.555000000     7.063000000     2.267000000
H    -1.315000000     6.164000000     2.494000000
H    -0.721000000     7.529000000     2.217000000
O    -6.121000000     2.904000000     4.094000000
H    -6.206000000     2.669000000     5.018000000
H    -5.987000000     2.069000000     3.646000000
O    -1.157000000     4.439000000     2.835000000
H    -1.126000000     3.837000000     3.579000000
H    -1.882000000     4.120000000     2.299000000
O    -4.062000000    -1.662000000     2.588000000
H    -4.568000000    -1.766000000     1.783000000
H    -3.562000000    -2.474000000     2.664000000
O     2.687000000    -4.394000000     1.510000000
H     2.856000000    -3.540000000     1.907000000
H     3.381000000    -4.498000000     0.859000000
O     2.695000000     3.571000000    -1.107000000
H     2.546000000     3.597000000    -2.052000000
H     3.243000000     2.798000000    -0.972000000
O     5.452000000    -4.230000000     0.462000000
H     5.722000000    -3.356000000     0.178000000
H     6.027000000    -4.431000000     1.200000000
O    -0.093000000     1.338000000    -2.679000000
H    -0.324000000     0.963000000    -1.829000000
H     0.860000000     1.428000000    -2.650000000
O    -2.142000000     6.537000000    -0.519000000
H    -2.002000000     6.577000000     0.427000000
H    -1.711000000     7.321000000    -0.858000000
O    -0.095000000     0.046000000    -4.956000000
H    -0.428000000     0.579000000    -4.234000000
H     0.139000000    -0.788000000    -4.549000000
O     2.678000000    -5.564000000    -2.457000000
H     2.402000000    -4.694000000    -2.167000000
H     3.219000000    -5.398000000    -3.229000000
O     2.951000000    -2.339000000    -5.293000000
H     2.347000000    -2.049000000    -5.977000000
H     2.387000000    -2.551000000    -4.549000000
O    -2.986000000     4.143000000    -1.106000000
H    -2.539000000     3.825000000    -1.891000000
H    -2.820000000     5.086000000    -1.101000000
O    -3.447000000     0.520000000     4.532000000
H    -3.456000000    -0.240000000     3.950000000
H    -4.366000000     0.775000000     4.607000000
O    -5.386000000    -1.874000000    -0.004000000
H    -4.794000000    -2.622000000    -0.072000000
H    -6.248000000    -2.229000000    -0.223000000
O     4.832000000     1.541000000    -0.956000000
H     5.360000000     2.284000000    -1.248000000
H     5.473000000     0.871000000    -0.717000000
O     2.204000000     4.336000000     1.455000000
H     1.305000000     4.650000000     1.551000000
H     2.274000000     4.091000000     0.532000000
O    -0.123000000    -7.603000000     0.218000000
H     0.072000000    -7.914000000     1.102000000
H     0.070000000    -6.665000000     0.245000000
O     1.301000000     0.925000000     3.432000000
H     2.216000000     1.136000000     3.247000000
H     0.804000000     1.424000000     2.784000000
O    -3.579000000     3.247000000     1.347000000
H    -4.245000000     2.654000000     0.999000000
H    -3.250000000     3.715000000     0.579000000
O    -4.341000000     1.914000000    -0.900000000
H    -3.889000000     2.707000000    -1.187000000
H    -4.011000000     1.227000000    -1.480000000
O    -3.303000000    -3.609000000    -0.242000000
H    -2.901000000    -3.796000000     0.606000000
H    -2.754000000    -4.075000000    -0.874000000
O     1.366000000    -7.663000000    -3.911000000
H     1.394000000    -8.461000000    -3.383000000
H     1.349000000    -6.952000000    -3.270000000
O     0.477000000     1.721000000     5.976000000
H     0.784000000     1.172000000     6.698000000
H     1.019000000     1.463000000     5.231000000
O     3.883000000    -5.282000000    -5.063000000
H     3.238000000    -5.398000000    -5.761000000
H     4.071000000    -4.343000000    -5.064000000
