158
-3060.58214
C     0.269000000     1.482000000     0.107000000
H     0.471000000     2.529000000     0.318000000
C    -0.785000000     0.769000000     0.691000000
H    -1.416000000     1.176000000     1.477000000
C    -0.930000000    -0.594000000     0.475000000
H    -1.751000000    -1.125000000     0.930000000
C    -0.108000000    -1.334000000    -0.348000000
H    -0.204000000    -2.386000000    -0.606000000
C     0.947000000    -0.591000000    -0.864000000
H     1.662000000    -1.074000000    -1.525000000
C     1.172000000     0.789000000    -0.709000000
C     2.357000000     1.521000000    -1.376000000
O     2.455000000     2.674000000    -1.439000000
O     3.180000000     0.815000000    -1.950000000
O     5.527000000     2.179000000    -1.721000000
H     6.107000000     1.528000000    -1.327000000
H     4.673000000     1.749000000    -1.758000000
O     4.885000000     6.595000000     0.885000000
H     4.648000000     6.133000000     1.690000000
H     4.986000000     5.902000000     0.233000000
O     5.521000000     1.719000000    -4.586000000
H     5.420000000     2.048000000    -3.693000000
H     4.638000000     1.750000000    -4.954000000
O    -3.370000000    -3.260000000    -0.306000000
H    -3.952000000    -3.762000000     0.263000000
H    -3.946000000    -2.899000000    -0.980000000
O    -1.671000000     1.151000000    -2.478000000
H    -0.947000000     1.720000000    -2.739000000
H    -1.992000000     1.532000000    -1.660000000
O    -4.025000000     2.317000000     0.218000000
H    -4.759000000     1.788000000    -0.094000000
H    -3.991000000     2.149000000     1.159000000
O    -2.487000000    -1.231000000     3.743000000
H    -2.055000000    -1.813000000     3.117000000
H    -1.777000000    -0.903000000     4.294000000
O     1.836000000    -4.804000000    -1.690000000
H     2.191000000    -5.556000000    -2.163000000
H     0.925000000    -5.041000000    -1.512000000
O    -6.442000000    -2.792000000     2.342000000
H    -7.136000000    -3.189000000     2.868000000
H    -6.077000000    -3.520000000     1.839000000
O     3.471000000     3.099000000     0.908000000
H     3.225000000     3.982000000     1.183000000
H     3.046000000     2.985000000     0.058000000
O    -3.448000000     1.607000000     3.272000000
H    -4.160000000     1.649000000     3.910000000
H    -3.291000000     0.671000000     3.148000000
O    -2.453000000    -4.633000000     5.573000000
H    -2.795000000    -3.772000000     5.334000000
H    -2.733000000    -4.758000000     6.480000000
O    -5.979000000     0.090000000     4.071000000
H    -5.907000000    -0.864000000     4.102000000
H    -6.372000000     0.273000000     3.218000000
O     4.150000000    -1.580000000    -5.892000000
H     4.710000000    -2.000000000    -5.239000000
H     3.838000000    -0.783000000    -5.462000000
O     6.248000000     4.678000000    -3.980000000
H     6.259000000     4.513000000    -3.038000000
H     5.372000000     4.410000000    -4.259000000
O     3.687000000     0.638000000     2.558000000
H     3.559000000     0.055000000     1.810000000
H     3.718000000     1.515000000     2.175000000
O    -1.949000000    -1.541000000    -2.869000000
H    -1.878000000    -0.635000000    -2.571000000
H    -1.660000000    -2.063000000    -2.121000000
O     2.445000000    -3.564000000     0.607000000
H     2.325000000    -4.095000000    -0.181000000
H     2.910000000    -2.785000000     0.302000000
O     3.617000000     4.236000000    -3.083000000
H     2.981000000     4.713000000    -3.616000000
H     3.084000000     3.678000000    -2.517000000
O    -1.687000000    -5.651000000    -1.518000000
H    -2.334000000    -4.975000000    -1.720000000
H    -2.004000000    -6.050000000    -0.708000000
O     1.354000000     4.110000000    -5.239000000
H     1.546000000     4.690000000    -5.975000000
H     1.098000000     3.282000000    -5.646000000
O    -0.219000000     3.761000000     2.951000000
H     0.321000000     4.548000000     2.879000000
H     0.410000000     3.039000000     2.957000000
O     0.577000000    -0.992000000    -4.422000000
H     0.726000000    -1.891000000    -4.715000000
H    -0.214000000    -1.042000000    -3.886000000
O     8.114000000     1.380000000    -3.543000000
H     8.564000000     2.219000000    -3.441000000
H     7.207000000     1.617000000    -3.735000000
O     0.746000000    -3.303000000     3.046000000
H     1.301000000    -3.364000000     2.268000000
H     0.939000000    -4.099000000     3.540000000
O     0.037000000    -1.200000000     4.641000000
H     0.183000000    -1.679000000     5.457000000
H     0.426000000    -1.754000000     3.965000000
O    -0.361000000     6.251000000     0.291000000
H    -0.862000000     5.435000000     0.276000000
H    -0.961000000     6.893000000     0.671000000
O    -2.492000000    -2.111000000    -5.456000000
H    -2.193000000    -2.039000000    -4.550000000
H    -1.695000000    -2.271000000    -5.961000000
O    -4.845000000    -1.838000000    -2.051000000
H    -4.057000000    -1.467000000    -2.448000000
H    -5.554000000    -1.583000000    -2.642000000
O    -0.474000000    -6.409000000    -3.793000000
H    -0.922000000    -6.197000000    -2.974000000
H     0.383000000    -6.735000000    -3.519000000
O    -1.870000000     4.159000000     0.931000000
H    -1.970000000     3.298000000     0.526000000
H    -1.376000000     3.991000000     1.734000000
O     6.762000000     0.087000000    -0.310000000
H     6.426000000     0.644000000     0.392000000
H     7.709000000     0.074000000    -0.173000000
O     1.425000000     1.336000000     3.920000000
H     2.088000000     0.695000000     3.665000000
H     0.591000000     0.884000000     3.787000000
O    -6.034000000    -0.636000000     0.618000000
H    -5.477000000    -1.059000000    -0.036000000
H    -6.127000000    -1.289000000     1.311000000
O     0.153000000     3.352000000    -2.799000000
H     0.855000000     3.088000000    -2.204000000
H     0.608000000     3.662000000    -3.583000000
O    -2.036000000     3.331000000     4.905000000
H    -2.580000000     2.629000000     4.547000000
H    -1.458000000     3.577000000     4.182000000
O     4.603000000    -1.713000000    -0.231000000
H     4.128000000    -0.989000000    -0.639000000
H     5.522000000    -1.447000000    -0.266000000
O    -1.700000000    -7.341000000     0.676000000
H    -0.797000000    -7.531000000     0.934000000
H    -2.008000000    -6.714000000     1.330000000
O     5.373000000     4.761000000    -1.019000000
H     4.886000000     4.972000000    -1.816000000
H     5.404000000     3.805000000    -1.004000000
O     2.893000000     0.508000000    -4.576000000
H     2.020000000     0.126000000    -4.480000000
H     3.212000000     0.602000000    -3.679000000
O    -3.987000000    -1.930000000     5.780000000
H    -3.595000000    -1.725000000     4.931000000
H    -4.209000000    -1.077000000     6.154000000
O    -7.149000000     1.794000000     1.228000000
H    -6.723000000     0.989000000     0.932000000
H    -8.056000000     1.705000000     0.936000000
O    -2.567000000    -5.263000000     2.725000000
H    -1.662000000    -4.968000000     2.622000000
H    -2.690000000    -5.331000000     3.672000000
O     2.126000000     5.507000000     0.987000000
H     2.720000000     6.085000000     0.509000000
H     1.266000000     5.677000000     0.603000000
O     6.297000000     2.480000000     1.392000000
H     6.326000000     2.454000000     2.348000000
H     5.417000000     2.794000000     1.186000000
O    -5.166000000    -4.927000000     1.169000000
H    -5.609000000    -5.744000000     0.939000000
H    -4.717000000    -5.121000000     1.992000000
O    -4.893000000     4.820000000    -0.323000000
H    -4.444000000     4.001000000    -0.116000000
H    -4.770000000     4.930000000    -1.266000000
O     3.471000000    -3.235000000    -3.360000000
H     2.918000000    -3.768000000    -2.788000000
H     3.096000000    -3.351000000    -4.232000000
