158
-3056.84674
C     0.850000000     1.189000000     0.076000000
H     1.410000000     2.120000000     0.033000000
C    -0.498000000     1.243000000    -0.190000000
H    -0.890000000     2.214000000    -0.480000000
C    -1.194000000     0.028000000    -0.096000000
H    -2.292000000     0.039000000    -0.301000000
C    -0.555000000    -1.196000000     0.008000000
H    -1.214000000    -2.060000000    -0.014000000
C     0.843000000    -1.189000000     0.015000000
H     1.349000000    -2.142000000     0.155000000
C     1.531000000    -0.002000000     0.110000000
C     3.009000000    -0.032000000     0.380000000
O     3.584000000     1.046000000     0.588000000
O     3.637000000    -1.049000000     0.483000000
O    -8.053000000     0.940000000     0.488000000
H    -7.532000000     0.186000000     0.765000000
H    -7.581000000     1.697000000     0.833000000
O    -0.806000000     4.602000000    -1.771000000
H    -1.140000000     4.465000000    -2.657000000
H     0.016000000     4.112000000    -1.747000000
O    -1.778000000    -4.054000000    -2.841000000
H    -2.217000000    -3.454000000    -2.238000000
H    -2.137000000    -4.915000000    -2.627000000
O    -4.061000000    -2.905000000    -1.684000000
H    -3.876000000    -3.033000000    -0.754000000
H    -4.733000000    -3.556000000    -1.887000000
O    -5.456000000    -0.129000000    -1.455000000
H    -6.293000000    -0.364000000    -1.855000000
H    -4.801000000    -0.578000000    -1.989000000
O     6.933000000     0.511000000     2.274000000
H     6.389000000    -0.252000000     2.470000000
H     7.248000000     0.805000000     3.128000000
O     3.010000000    -3.825000000     1.183000000
H     3.070000000    -2.873000000     1.101000000
H     3.892000000    -4.100000000     1.433000000
O    -6.866000000     2.889000000     2.245000000
H    -7.066000000     3.763000000     2.578000000
H    -6.057000000     2.641000000     2.693000000
O    -4.845000000    -1.966000000     2.922000000
H    -5.763000000    -2.224000000     3.009000000
H    -4.520000000    -1.934000000     3.822000000
O    -2.057000000     5.598000000     1.950000000
H    -1.357000000     6.249000000     1.994000000
H    -2.731000000     6.006000000     1.407000000
O     0.275000000     1.995000000     4.756000000
H     0.401000000     2.167000000     5.689000000
H     0.701000000     1.150000000     4.609000000
O     7.082000000     0.032000000    -3.230000000
H     7.245000000    -0.855000000    -2.911000000
H     6.679000000     0.483000000    -2.487000000
O     2.237000000     6.599000000    -1.541000000
H     1.720000000     5.836000000    -1.798000000
H     3.146000000     6.305000000    -1.606000000
O     2.007000000    -4.681000000    -2.023000000
H     1.345000000    -4.861000000    -1.355000000
H     2.457000000    -5.516000000    -2.146000000
O     4.805000000     0.419000000     4.503000000
H     3.924000000     0.046000000     4.463000000
H     4.810000000     1.097000000     3.828000000
O    -5.549000000     0.184000000     1.138000000
H    -5.455000000     0.130000000     0.187000000
H    -5.040000000    -0.555000000     1.471000000
O     5.028000000    -2.136000000     2.507000000
H     4.408000000    -1.551000000     2.072000000
H     4.769000000    -2.119000000     3.428000000
O    -2.801000000    -6.037000000    -0.779000000
H    -2.837000000    -6.060000000     0.177000000
H    -1.870000000    -5.938000000    -0.981000000
O     3.431000000    -2.404000000    -1.870000000
H     2.676000000    -2.991000000    -1.820000000
H     3.443000000    -1.956000000    -1.025000000
O     4.390000000     3.432000000    -0.886000000
H     4.248000000     3.014000000    -0.037000000
H     4.557000000     2.705000000    -1.486000000
O     4.235000000     1.456000000    -2.933000000
H     4.963000000     1.181000000    -3.490000000
H     3.520000000     0.862000000    -3.163000000
O     4.094000000     2.560000000     2.704000000
H     4.462000000     3.425000000     2.526000000
H     3.892000000     2.202000000     1.840000000
O    -0.207000000    -5.462000000    -0.450000000
H     0.209000000    -6.300000000    -0.249000000
H     0.021000000    -4.898000000     0.289000000
O    -0.014000000     4.125000000    -4.860000000
H     0.261000000     3.284000000    -4.494000000
H     0.746000000     4.696000000    -4.746000000
O    -1.872000000     3.155000000     3.602000000
H    -1.045000000     2.783000000     3.907000000
H    -1.622000000     3.743000000     2.889000000
O     6.232000000    -3.747000000     0.439000000
H     6.135000000    -3.377000000    -0.439000000
H     6.025000000    -3.023000000     1.029000000
O     0.425000000     6.342000000     2.495000000
H     0.610000000     5.405000000     2.446000000
H     1.277000000     6.746000000     2.661000000
O    -0.432000000    -0.736000000    -3.186000000
H    -0.227000000    -1.617000000    -3.499000000
H    -0.368000000    -0.799000000    -2.233000000
O     0.507000000    -4.452000000     2.068000000
H     1.389000000    -4.288000000     1.735000000
H     0.619000000    -4.529000000     3.015000000
O    -0.480000000    -0.875000000     3.253000000
H    -0.842000000    -0.388000000     2.513000000
H    -0.653000000    -1.793000000     3.044000000
O    -2.660000000    -1.108000000    -5.264000000
H    -2.318000000    -1.827000000    -5.794000000
H    -1.968000000    -0.929000000    -4.627000000
O    -4.428000000     2.081000000     3.376000000
H    -4.462000000     1.466000000     2.644000000
H    -3.495000000     2.248000000     3.506000000
O     7.330000000     2.916000000     1.164000000
H     7.327000000     2.076000000     1.623000000
H     8.215000000     2.990000000     0.805000000
O     2.129000000    -0.636000000     4.403000000
H     2.091000000    -1.385000000     4.999000000
H     1.353000000    -0.732000000     3.850000000
O    -5.151000000     2.814000000    -1.753000000
H    -5.973000000     3.273000000    -1.578000000
H    -5.287000000     1.936000000    -1.397000000
O     1.835000000     3.853000000    -2.093000000
H     1.767000000     3.208000000    -2.797000000
H     2.679000000     3.670000000    -1.680000000
O     6.108000000    -0.057000000    -0.383000000
H     5.197000000    -0.342000000    -0.304000000
H     6.220000000     0.582000000     0.321000000
O     0.861000000     1.788000000    -3.834000000
H     0.605000000     1.002000000    -3.351000000
H     1.086000000     1.468000000    -4.708000000
O     1.145000000    -2.987000000    -4.409000000
H     1.065000000    -3.443000000    -5.247000000
H     1.228000000    -3.686000000    -3.762000000
O     3.143000000    -0.993000000    -4.203000000
H     3.341000000    -1.444000000    -3.382000000
H     2.191000000    -1.049000000    -4.283000000
O    -1.925000000    -5.614000000     2.105000000
H    -1.034000000    -5.314000000     1.925000000
H    -2.126000000    -5.263000000     2.972000000
O     8.591000000    -1.058000000    -0.206000000
H     7.681000000    -0.780000000    -0.313000000
H     8.530000000    -1.963000000     0.102000000
O     1.254000000     3.594000000     2.487000000
H     2.153000000     3.270000000     2.543000000
H     0.851000000     3.327000000     3.314000000
O    -0.889000000     7.298000000     0.057000000
H    -0.833000000     6.354000000    -0.096000000
H    -1.417000000     7.627000000    -0.671000000
O    -3.360000000     5.119000000    -0.990000000
H    -4.004000000     4.417000000    -0.893000000
H    -2.620000000     4.706000000    -1.433000000
O    -3.504000000    -3.367000000     1.134000000
H    -3.138000000    -4.133000000     1.575000000
H    -4.047000000    -2.944000000     1.799000000
O    -3.758000000     4.017000000    -3.739000000
H    -4.411000000     3.658000000    -3.138000000
H    -3.602000000     3.315000000    -4.371000000
O     4.958000000    -4.499000000    -2.855000000
H     4.553000000    -5.309000000    -2.547000000
H     4.531000000    -3.809000000    -2.347000000
