158
-3010.74744
C    -0.353000000     1.464000000     0.062000000
H    -0.783000000     2.461000000     0.090000000
C    -1.194000000     0.399000000     0.402000000
H    -2.241000000     0.562000000     0.645000000
C    -0.743000000    -0.930000000     0.247000000
H    -1.448000000    -1.778000000     0.510000000
C     0.534000000    -1.219000000    -0.222000000
H     0.852000000    -2.258000000    -0.217000000
C     1.393000000    -0.148000000    -0.411000000
H     2.440000000    -0.348000000    -0.623000000
C     0.944000000     1.147000000    -0.367000000
C     1.924000000     2.265000000    -0.778000000
O     1.475000000     3.384000000    -0.961000000
O     3.100000000     2.018000000    -1.043000000
O    -0.122000000     4.857000000     3.447000000
H    -0.846000000     4.232000000     3.483000000
H     0.548000000     4.481000000     4.017000000
O     4.051000000    -1.141000000     2.291000000
H     4.445000000    -1.504000000     1.498000000
H     4.265000000    -0.209000000     2.260000000
O     1.384000000     0.025000000     3.046000000
H     0.781000000    -0.029000000     2.304000000
H     2.240000000    -0.190000000     2.676000000
O     4.751000000    -1.619000000    -0.246000000
H     5.043000000    -1.008000000    -0.922000000
H     4.249000000    -2.281000000    -0.721000000
O    -2.249000000     6.022000000     1.384000000
H    -1.830000000     6.792000000     1.768000000
H    -1.586000000     5.656000000     0.798000000
O    -1.963000000     0.179000000    -2.450000000
H    -1.754000000     1.054000000    -2.777000000
H    -1.776000000     0.222000000    -1.513000000
O     0.224000000    -5.743000000    -0.401000000
H     0.397000000    -6.608000000    -0.773000000
H     1.032000000    -5.514000000     0.059000000
O     2.438000000    -4.917000000     1.669000000
H     2.290000000    -5.838000000     1.886000000
H     3.038000000    -4.604000000     2.346000000
O     1.696000000     6.297000000     1.492000000
H     1.372000000     6.306000000     0.591000000
H     0.967000000     5.949000000     2.005000000
O    -4.131000000     0.865000000    -3.967000000
H    -3.536000000     0.265000000    -3.517000000
H    -4.928000000     0.352000000    -4.105000000
O     3.137000000    -3.836000000    -1.236000000
H     2.788000000    -4.015000000    -0.362000000
H     3.896000000    -4.414000000    -1.314000000
O    -3.594000000    -6.952000000     0.796000000
H    -4.496000000    -6.810000000     1.083000000
H    -3.382000000    -7.835000000     1.100000000
O     8.013000000     1.744000000    -0.301000000
H     7.159000000     1.795000000     0.129000000
H     8.139000000     0.810000000    -0.472000000
O     1.454000000    -6.739000000     4.180000000
H     0.832000000    -6.055000000     3.929000000
H     1.277000000    -6.895000000     5.107000000
O     0.588000000    -2.420000000     4.445000000
H     1.433000000    -2.652000000     4.829000000
H     0.770000000    -1.642000000     3.918000000
O     5.693000000     5.926000000    -0.460000000
H     5.788000000     5.433000000    -1.275000000
H     6.050000000     6.791000000    -0.661000000
O    -4.557000000     1.178000000     3.025000000
H    -4.545000000     1.826000000     2.320000000
H    -4.052000000     1.583000000     3.731000000
O     1.414000000    -2.709000000    -5.309000000
H     0.796000000    -2.059000000    -4.974000000
H     1.666000000    -2.378000000    -6.171000000
O    -3.822000000    -3.889000000     2.818000000
H    -3.048000000    -4.151000000     2.319000000
H    -3.472000000    -3.412000000     3.570000000
O    -6.852000000    -0.242000000     2.129000000
H    -5.984000000     0.160000000     2.164000000
H    -6.681000000    -1.183000000     2.136000000
O     6.551000000     4.293000000    -2.861000000
H     7.141000000     3.794000000    -2.296000000
H     6.767000000     4.004000000    -3.748000000
O     0.681000000     1.019000000    -5.608000000
H     1.348000000     1.632000000    -5.299000000
H     0.661000000     1.146000000    -6.557000000
O     3.288000000    -4.307000000    -4.208000000
H     3.114000000    -4.203000000    -3.273000000
H     2.531000000    -3.907000000    -4.638000000
O     3.939000000     3.806000000    -2.933000000
H     3.575000000     3.279000000    -2.222000000
H     4.848000000     3.961000000    -2.675000000
O    -1.939000000    -0.794000000    -5.074000000
H    -1.671000000    -0.365000000    -4.261000000
H    -1.875000000    -0.109000000    -5.739000000
O    -4.455000000     3.471000000    -0.134000000
H    -3.914000000     4.124000000    -0.577000000
H    -4.470000000     3.753000000     0.780000000
O     5.462000000     2.545000000     0.345000000
H     5.185000000     3.461000000     0.358000000
H     4.713000000     2.073000000    -0.018000000
O    -2.834000000    -2.017000000     4.428000000
H    -3.197000000    -1.275000000     4.912000000
H    -2.001000000    -1.694000000     4.084000000
O    -0.635000000    -4.655000000     3.398000000
H    -0.813000000    -4.507000000     2.469000000
H    -0.213000000    -3.848000000     3.692000000
O    -4.275000000     4.127000000     2.462000000
H    -3.847000000     4.945000000     2.209000000
H    -4.502000000     4.251000000     3.384000000
O    -0.231000000     5.548000000    -0.369000000
H    -0.231000000     6.208000000    -1.062000000
H     0.279000000     4.822000000    -0.730000000
O    -4.083000000    -4.701000000    -3.408000000
H    -3.632000000    -5.335000000    -2.850000000
H    -4.069000000    -3.886000000    -2.905000000
O     2.824000000     2.627000000    -4.999000000
H     3.516000000     1.996000000    -5.199000000
H     3.203000000     3.192000000    -4.326000000
O     6.909000000    -2.929000000     1.039000000
H     6.029000000    -2.731000000     0.717000000
H     6.771000000    -3.581000000     1.727000000
O     1.517000000     7.508000000    -3.713000000
H     2.222000000     7.223000000    -3.131000000
H     0.749000000     7.570000000    -3.145000000
O    -6.511000000     2.415000000    -1.161000000
H    -5.771000000     2.739000000    -0.646000000
H    -6.154000000     2.289000000    -2.040000000
O    -2.891000000     3.689000000    -4.757000000
H    -2.658000000     3.124000000    -5.494000000
H    -2.327000000     3.395000000    -4.042000000
O    -6.248000000    -0.217000000     5.097000000
H    -5.764000000    -0.441000000     5.892000000
H    -5.588000000    -0.234000000     4.403000000
O     2.734000000     5.824000000    -1.412000000
H     2.319000000     5.084000000    -1.855000000
H     2.820000000     5.542000000    -0.502000000
O    -1.763000000    -4.660000000     0.950000000
H    -2.576000000    -5.087000000     0.679000000
H    -1.087000000    -5.067000000     0.409000000
O    -1.360000000    -2.996000000    -2.249000000
H    -1.015000000    -2.685000000    -1.412000000
H    -1.418000000    -2.210000000    -2.792000000
O    -0.748000000     3.315000000    -2.825000000
H     0.072000000     3.177000000    -3.299000000
H    -0.497000000     3.301000000    -1.902000000
O     5.006000000     0.361000000    -2.224000000
H     5.037000000     0.546000000    -3.163000000
H     4.438000000     1.042000000    -1.864000000
O     5.001000000     1.368000000     2.766000000
H     4.749000000     2.056000000     3.383000000
H     5.565000000     1.810000000     2.132000000
O    -0.191000000     2.003000000     4.435000000
H     0.638000000     1.767000000     4.019000000
H    -0.294000000     1.365000000     5.142000000
O    -6.332000000    -2.808000000     1.769000000
H    -5.745000000    -3.440000000     2.184000000
H    -6.820000000    -3.322000000     1.126000000
O    -1.016000000    -5.722000000    -2.959000000
H    -1.010000000    -4.804000000    -2.689000000
H    -0.538000000    -6.178000000    -2.266000000
O    -6.846000000    -2.727000000    -2.261000000
H    -7.072000000    -3.594000000    -2.599000000
H    -6.338000000    -2.904000000    -1.469000000
