158
-3037.66549
C     0.300000000     1.320000000     0.513000000
H     0.436000000     2.225000000     1.100000000
C    -0.551000000     0.400000000     1.066000000
H    -1.008000000     0.570000000     2.037000000
C    -0.857000000    -0.744000000     0.407000000
H    -1.630000000    -1.399000000     0.799000000
C    -0.097000000    -1.075000000    -0.712000000
H    -0.310000000    -2.003000000    -1.238000000
C     0.844000000    -0.285000000    -1.204000000
H     1.456000000    -0.601000000    -2.045000000
C     0.990000000     0.984000000    -0.672000000
C     2.071000000     1.900000000    -1.134000000
O     1.948000000     3.085000000    -0.976000000
O     3.079000000     1.462000000    -1.696000000
O     3.090000000     6.064000000     2.190000000
H     2.300000000     5.563000000     2.389000000
H     3.763000000     5.684000000     2.755000000
O     5.147000000    -0.751000000     0.188000000
H     5.553000000     0.106000000     0.060000000
H     4.666000000    -0.668000000     1.011000000
O     1.035000000     2.156000000     3.648000000
H     0.920000000     2.119000000     4.598000000
H     0.757000000     1.293000000     3.340000000
O     2.069000000    -2.071000000     2.328000000
H     1.712000000    -1.302000000     1.882000000
H     1.961000000    -2.784000000     1.698000000
O     4.425000000    -2.135000000    -2.789000000
H     3.960000000    -1.429000000    -3.240000000
H     4.877000000    -2.608000000    -3.488000000
O     0.324000000     1.580000000     6.229000000
H     0.864000000     0.922000000     6.666000000
H    -0.576000000     1.322000000     6.430000000
O     0.577000000     4.802000000     3.062000000
H     0.788000000     3.878000000     3.198000000
H     0.194000000     5.084000000     3.893000000
O    -6.117000000    -2.664000000     3.575000000
H    -7.000000000    -2.303000000     3.502000000
H    -5.539000000    -1.920000000     3.403000000
O     3.337000000    -3.107000000    -0.554000000
H     3.500000000    -2.605000000    -1.353000000
H     3.863000000    -2.670000000     0.115000000
O    -5.081000000    -0.555000000    -0.413000000
H    -4.890000000    -0.386000000     0.509000000
H    -6.036000000    -0.611000000    -0.454000000
O     4.986000000     1.705000000     2.844000000
H     5.665000000     1.072000000     3.078000000
H     5.151000000     1.903000000     1.922000000
O     5.873000000     2.652000000    -3.940000000
H     6.619000000     3.240000000    -4.054000000
H     6.148000000     1.833000000    -4.352000000
O    -1.528000000     3.921000000     5.308000000
H    -0.823000000     3.332000000     5.578000000
H    -1.190000000     4.798000000     5.488000000
O     4.447000000     4.028000000    -6.376000000
H     4.437000000     3.578000000    -5.531000000
H     4.480000000     3.323000000    -7.022000000
O     3.492000000     5.198000000    -0.370000000
H     2.983000000     4.436000000    -0.648000000
H     3.365000000     5.238000000     0.578000000
O    -1.364000000    -0.867000000     5.153000000
H    -0.651000000    -1.427000000     5.462000000
H    -1.583000000    -0.320000000     5.907000000
O     1.056000000    -4.197000000     0.405000000
H     1.883000000    -4.148000000    -0.075000000
H     0.401000000    -4.394000000    -0.265000000
O     6.209000000     4.664000000    -0.923000000
H     5.294000000     4.939000000    -0.992000000
H     6.592000000     4.892000000    -1.770000000
O     6.217000000     0.179000000    -5.029000000
H     5.316000000    -0.060000000    -4.811000000
H     6.705000000     0.036000000    -4.218000000
O    -3.542000000    -0.937000000     3.002000000
H    -2.923000000    -0.924000000     3.733000000
H    -3.396000000    -1.784000000     2.581000000
O    -1.988000000    -1.764000000    -4.229000000
H    -2.106000000    -1.222000000    -3.449000000
H    -2.822000000    -1.697000000    -4.695000000
O    -2.856000000    -5.566000000     0.084000000
H    -3.172000000    -4.718000000    -0.227000000
H    -3.248000000    -5.664000000     0.952000000
O    -3.094000000    -6.357000000     2.835000000
H    -2.574000000    -6.840000000     3.477000000
H    -3.811000000    -6.951000000     2.612000000
O     1.006000000    -0.123000000    -4.733000000
H     1.084000000    -0.861000000    -5.338000000
H     0.334000000    -0.396000000    -4.108000000
O     3.254000000     3.145000000    -3.723000000
H     2.826000000     2.885000000    -2.907000000
H     4.159000000     2.851000000    -3.623000000
O    -2.272000000     3.864000000     2.828000000
H    -1.387000000     3.967000000     2.478000000
H    -2.194000000     4.108000000     3.750000000
O    -2.574000000     0.079000000    -2.311000000
H    -1.914000000     0.214000000    -1.631000000
H    -3.380000000    -0.109000000    -1.829000000
O    -3.061000000     2.606000000     0.113000000
H    -2.841000000     3.005000000     0.955000000
H    -2.311000000     2.800000000    -0.448000000
O    -3.884000000    -3.120000000    -0.357000000
H    -4.017000000    -3.295000000     0.574000000
H    -4.118000000    -2.198000000    -0.464000000
O     1.449000000     4.384000000    -5.037000000
H     2.214000000     4.028000000    -4.584000000
H     0.859000000     4.655000000    -4.334000000
O     5.668000000     2.040000000    -0.204000000
H     5.924000000     2.934000000    -0.433000000
H     5.021000000     1.799000000    -0.867000000
O    -1.620000000    -4.159000000     6.045000000
H    -1.038000000    -3.427000000     6.251000000
H    -1.322000000    -4.468000000     5.189000000
O     0.927000000    -6.550000000     2.160000000
H     1.762000000    -7.014000000     2.226000000
H     1.141000000    -5.736000000     1.704000000
O    -0.275000000    -4.795000000     3.738000000
H     0.003000000    -5.467000000     3.115000000
H     0.254000000    -4.029000000     3.515000000
O     0.953000000    -2.383000000    -6.250000000
H     1.208000000    -3.305000000    -6.280000000
H     0.965000000    -2.101000000    -7.164000000
O    -2.580000000     4.811000000    -2.841000000
H    -2.663000000     3.900000000    -3.122000000
H    -1.790000000     4.823000000    -2.299000000
O    -4.136000000    -3.993000000     2.277000000
H    -4.816000000    -3.671000000     2.868000000
H    -3.760000000    -4.747000000     2.732000000
O    -0.793000000     3.758000000    -0.869000000
H    -0.061000000     3.224000000    -1.175000000
H    -0.380000000     4.517000000    -0.456000000
O    -0.605000000    -5.847000000    -1.346000000
H    -0.091000000    -6.588000000    -1.024000000
H    -1.381000000    -5.833000000    -0.785000000
O    -5.793000000    -3.623000000    -2.288000000
H    -5.150000000    -3.660000000    -1.580000000
H    -6.074000000    -4.530000000    -2.404000000
O     0.366000000     6.017000000    -2.980000000
H    -0.308000000     6.671000000    -2.794000000
H     1.058000000     6.199000000    -2.345000000
O     0.058000000     5.991000000     0.403000000
H     0.905000000     6.171000000    -0.005000000
H     0.238000000     6.002000000     1.343000000
O    -0.338000000     2.029000000    -5.633000000
H     0.113000000     1.187000000    -5.566000000
H     0.365000000     2.679000000    -5.626000000
O     3.733000000     0.097000000    -3.915000000
H     2.891000000     0.070000000    -4.369000000
H     3.527000000     0.444000000    -3.048000000
O     2.120000000     7.344000000    -1.108000000
H     2.205000000     7.962000000    -0.382000000
H     2.836000000     6.722000000    -0.978000000
O    -4.184000000     2.022000000     3.267000000
H    -3.553000000     2.705000000     3.040000000
H    -3.794000000     1.214000000     2.931000000
O     8.289000000     1.338000000    -1.041000000
H     8.445000000     2.044000000    -1.668000000
H     7.396000000     1.487000000    -0.731000000
O    -1.093000000    -4.746000000    -4.047000000
H    -0.810000000    -4.653000000    -3.137000000
H    -1.464000000    -3.893000000    -4.270000000
