158
-3041.30429
C     1.050000000    -0.044000000     1.007000000
H     1.837000000    -0.270000000     1.723000000
C     0.150000000    -1.035000000     0.757000000
H     0.170000000    -1.918000000     1.391000000
C    -0.791000000    -0.882000000    -0.220000000
H    -1.508000000    -1.669000000    -0.555000000
C    -0.827000000     0.268000000    -1.025000000
H    -1.540000000     0.343000000    -1.841000000
C     0.133000000     1.281000000    -0.734000000
H     0.140000000     2.123000000    -1.422000000
C     0.981000000     1.180000000     0.326000000
C     1.766000000     2.412000000     0.643000000
O     2.395000000     2.401000000     1.729000000
O     1.663000000     3.403000000    -0.021000000
O     4.369000000    -1.358000000    -2.557000000
H     5.011000000    -0.772000000    -2.157000000
H     3.670000000    -1.427000000    -1.907000000
O    -4.502000000    -0.242000000    -0.022000000
H    -4.208000000    -0.376000000     0.879000000
H    -5.188000000     0.421000000     0.047000000
O    -2.351000000     2.505000000    -3.409000000
H    -2.781000000     2.376000000    -2.564000000
H    -2.252000000     3.454000000    -3.485000000
O     2.272000000     5.965000000     3.719000000
H     1.776000000     6.634000000     4.190000000
H     3.071000000     5.852000000     4.233000000
O     2.197000000     3.287000000    -3.729000000
H     3.132000000     3.110000000    -3.623000000
H     2.148000000     4.230000000    -3.887000000
O    -3.236000000    -3.519000000    -3.423000000
H    -3.673000000    -4.278000000    -3.810000000
H    -2.641000000    -3.891000000    -2.772000000
O     4.246000000     3.572000000    -0.752000000
H     4.560000000     4.460000000    -0.582000000
H     3.301000000     3.621000000    -0.607000000
O     1.187000000     2.994000000     4.231000000
H     1.680000000     3.811000000     4.159000000
H     1.420000000     2.504000000     3.443000000
O     3.139000000    -4.343000000     2.241000000
H     3.898000000    -3.788000000     2.420000000
H     2.929000000    -4.172000000     1.323000000
O     2.568000000    -3.734000000    -0.448000000
H     2.288000000    -3.221000000    -1.206000000
H     3.180000000    -4.377000000    -0.806000000
O     0.668000000     7.720000000    -1.558000000
H     0.815000000     6.780000000    -1.659000000
H     1.231000000     7.975000000    -0.828000000
O     5.944000000    -1.620000000     1.698000000
H     5.300000000    -1.016000000     1.327000000
H     5.919000000    -2.381000000     1.118000000
O     0.235000000    -5.461000000     0.135000000
H    -0.172000000    -5.767000000    -0.676000000
H     1.009000000    -4.976000000    -0.154000000
O    -2.610000000    -1.833000000     5.327000000
H    -2.155000000    -2.310000000     4.633000000
H    -2.488000000    -0.911000000     5.104000000
O     0.441000000     0.935000000    -4.451000000
H    -0.495000000     1.136000000    -4.423000000
H     0.868000000     1.736000000    -4.148000000
O     4.883000000     0.700000000     0.240000000
H     4.794000000     1.633000000     0.439000000
H     5.428000000     0.674000000    -0.546000000
O     3.371000000     0.245000000     3.528000000
H     4.256000000     0.603000000     3.606000000
H     3.039000000     0.606000000     2.706000000
O    -2.492000000     0.786000000     4.273000000
H    -3.133000000     1.497000000     4.262000000
H    -2.102000000     0.801000000     3.399000000
O     1.174000000    -5.533000000    -2.734000000
H     1.671000000    -4.754000000    -2.985000000
H     0.729000000    -5.802000000    -3.537000000
O    -3.019000000     1.396000000    -6.233000000
H    -2.798000000     2.229000000    -5.817000000
H    -3.182000000     1.621000000    -7.149000000
O    -1.988000000    -5.403000000     4.665000000
H    -1.332000000    -4.907000000     4.175000000
H    -2.356000000    -6.011000000     4.024000000
O    -0.674000000    -4.806000000    -5.014000000
H    -1.439000000    -4.916000000    -5.578000000
H    -1.025000000    -4.435000000    -4.204000000
O    -5.827000000    -2.592000000     1.978000000
H    -5.875000000    -1.636000000     1.994000000
H    -4.905000000    -2.783000000     1.806000000
O     5.292000000    -2.147000000     4.332000000
H     5.483000000    -2.021000000     3.402000000
H     5.036000000    -1.279000000     4.643000000
O    -0.172000000     1.071000000     5.905000000
H    -1.070000000     0.895000000     5.622000000
H     0.216000000     1.561000000     5.180000000
O    -4.978000000    -1.387000000    -3.146000000
H    -4.521000000    -2.225000000    -3.217000000
H    -4.687000000    -1.025000000    -2.309000000
O     3.363000000     5.139000000     1.513000000
H     2.926000000     5.347000000     2.339000000
H     3.014000000     4.282000000     1.267000000
O    -1.100000000     4.191000000     0.628000000
H    -1.220000000     4.685000000     1.439000000
H    -0.151000000     4.101000000     0.540000000
O     2.051000000     7.653000000     1.138000000
H     1.273000000     7.784000000     1.680000000
H     2.395000000     6.803000000     1.414000000
O     3.978000000     2.887000000     3.748000000
H     3.321000000     2.582000000     3.121000000
H     3.586000000     2.722000000     4.605000000
O    -1.554000000    -7.263000000     0.811000000
H    -2.164000000    -6.742000000     0.289000000
H    -0.752000000    -6.741000000     0.834000000
O     4.829000000     2.615000000    -3.255000000
H     4.532000000     2.641000000    -2.346000000
H     5.777000000     2.495000000    -3.195000000
O     5.755000000     3.999000000     1.908000000
H     5.402000000     3.475000000     2.628000000
H     5.046000000     4.601000000     1.681000000
O     1.674000000    -1.604000000    -1.937000000
H     1.456000000    -0.811000000    -1.447000000
H     0.971000000    -1.687000000    -2.582000000
O    -2.693000000     5.150000000    -1.428000000
H    -3.347000000     4.451000000    -1.407000000
H    -2.209000000     5.050000000    -0.609000000
O    -1.568000000    -5.915000000    -2.201000000
H    -0.652000000    -5.937000000    -2.479000000
H    -1.936000000    -6.738000000    -2.524000000
O    -4.566000000    -0.356000000     2.626000000
H    -3.958000000     0.282000000     2.998000000
H    -5.137000000    -0.596000000     3.355000000
O    -2.824000000    -1.272000000    -6.182000000
H    -2.876000000    -0.325000000    -6.051000000
H    -2.727000000    -1.630000000    -5.299000000
O    -2.926000000    -3.742000000     1.852000000
H    -2.008000000    -3.734000000     2.124000000
H    -3.367000000    -4.273000000     2.515000000
O     1.186000000    -2.075000000     3.735000000
H     1.852000000    -1.530000000     3.316000000
H     1.361000000    -1.989000000     4.672000000
O    -1.918000000     5.385000000    -4.071000000
H    -2.479000000     5.850000000    -4.691000000
H    -2.171000000     5.728000000    -3.214000000
O    -2.117000000     1.529000000     1.413000000
H    -1.839000000     2.445000000     1.404000000
H    -1.708000000     1.147000000     0.637000000
O     0.720000000     5.126000000    -1.647000000
H     0.966000000     4.510000000    -0.956000000
H     0.151000000     4.620000000    -2.227000000
O    -4.165000000     2.833000000    -0.975000000
H    -5.057000000     2.797000000    -1.318000000
H    -4.272000000     2.798000000    -0.024000000
O    -0.319000000    -4.229000000     2.739000000
H     0.252000000    -3.505000000     2.996000000
H     0.208000000    -4.744000000     2.128000000
O    -5.590000000    -4.923000000    -2.028000000
H    -6.033000000    -5.393000000    -1.322000000
H    -4.893000000    -4.434000000    -1.590000000
O    -0.552000000    -1.633000000    -3.911000000
H     0.066000000    -1.929000000    -4.579000000
H    -0.346000000    -0.707000000    -3.787000000
O    -4.316000000    -3.066000000    -0.629000000
H    -4.020000000    -3.399000000     0.218000000
H    -4.350000000    -2.116000000    -0.514000000
