158
-3025.14077
C     0.710000000     0.113000000     1.333000000
H     1.293000000     0.228000000     2.243000000
C     0.198000000    -1.041000000     0.773000000
H     0.419000000    -2.034000000     1.157000000
C    -0.588000000    -1.024000000    -0.358000000
H    -1.020000000    -1.923000000    -0.729000000
C    -0.861000000     0.158000000    -0.990000000
H    -1.465000000     0.146000000    -1.894000000
C    -0.227000000     1.298000000    -0.597000000
H    -0.335000000     2.220000000    -1.162000000
C     0.620000000     1.328000000     0.586000000
C     1.478000000     2.589000000     1.025000000
O     2.269000000     2.497000000     1.930000000
O     1.255000000     3.704000000     0.563000000
O    -3.936000000     2.690000000    -2.420000000
H    -3.148000000     2.888000000    -2.925000000
H    -4.450000000     2.119000000    -2.991000000
O    -3.014000000     6.139000000    -2.464000000
H    -2.687000000     5.556000000    -1.779000000
H    -2.847000000     7.020000000    -2.129000000
O    -1.892000000    -3.248000000     3.265000000
H    -2.375000000    -3.034000000     2.467000000
H    -1.457000000    -4.077000000     3.067000000
O     2.941000000     7.702000000    -0.757000000
H     3.710000000     8.074000000    -0.325000000
H     2.567000000     7.105000000    -0.109000000
O     0.754000000     2.166000000     4.613000000
H    -0.102000000     2.278000000     4.199000000
H     1.381000000     2.261000000     3.896000000
O     1.527000000    -4.374000000     0.623000000
H     2.117000000    -3.984000000     1.267000000
H     1.829000000    -4.029000000    -0.218000000
O    -1.914000000    -8.374000000    -1.469000000
H    -1.682000000    -8.978000000    -2.174000000
H    -1.616000000    -7.519000000    -1.779000000
O     2.226000000    -3.760000000    -1.890000000
H     1.939000000    -3.114000000    -2.535000000
H     3.091000000    -4.035000000    -2.195000000
O     4.307000000    -2.511000000     0.782000000
H     4.167000000    -1.835000000     1.445000000
H     4.580000000    -2.027000000     0.002000000
O     0.042000000     6.242000000    -3.144000000
H    -0.729000000     5.871000000    -2.714000000
H     0.782000000     5.787000000    -2.741000000
O    -1.623000000    -0.457000000     6.360000000
H    -1.039000000    -0.891000000     5.739000000
H    -1.645000000    -1.041000000     7.118000000
O    -3.137000000    -4.939000000     0.002000000
H    -2.266000000    -5.090000000    -0.367000000
H    -3.538000000    -5.808000000     0.034000000
O     3.754000000     2.545000000    -2.914000000
H     3.374000000     2.438000000    -3.787000000
H     3.873000000     1.651000000    -2.594000000
O    -1.727000000     6.613000000     2.329000000
H    -1.889000000     6.798000000     1.404000000
H    -2.547000000     6.231000000     2.643000000
O     4.466000000     2.982000000     6.316000000
H     4.018000000     2.754000000     5.501000000
H     3.843000000     3.537000000     6.785000000
O     6.781000000     1.893000000    -0.142000000
H     7.629000000     2.173000000     0.204000000
H     6.276000000     2.702000000    -0.221000000
O     3.815000000     6.223000000    -3.080000000
H     3.612000000     6.799000000    -2.344000000
H     3.208000000     5.490000000    -2.986000000
O     3.884000000     1.024000000     3.466000000
H     4.536000000     0.724000000     2.833000000
H     3.156000000     1.337000000     2.929000000
O     1.779000000     0.293000000     6.611000000
H     2.022000000    -0.611000000     6.412000000
H     1.376000000     0.616000000     5.805000000
O    -0.439000000    -5.293000000    -1.078000000
H     0.167000000    -5.017000000    -0.390000000
H    -0.369000000    -4.612000000    -1.747000000
O    -3.062000000     0.754000000     1.258000000
H    -3.465000000    -0.114000000     1.284000000
H    -2.290000000     0.643000000     0.703000000
O     1.273000000    -7.291000000    -2.293000000
H     0.557000000    -6.739000000    -1.978000000
H     1.847000000    -7.394000000    -1.534000000
O    -3.457000000    -2.449000000     0.862000000
H    -4.247000000    -2.278000000     1.375000000
H    -3.476000000    -3.392000000     0.701000000
O    -5.571000000     0.087000000    -1.098000000
H    -5.185000000    -0.714000000    -1.452000000
H    -4.877000000     0.742000000    -1.176000000
O     5.075000000     3.917000000    -0.686000000
H     4.620000000     3.378000000    -0.038000000
H     4.599000000     3.762000000    -1.502000000
O     1.996000000     6.159000000     1.314000000
H     2.610000000     5.938000000     2.014000000
H     1.718000000     5.314000000     0.963000000
O     1.984000000     4.593000000    -1.993000000
H     2.330000000     3.799000000    -2.400000000
H     1.837000000     4.349000000    -1.079000000
O     4.353000000     4.090000000     2.541000000
H     3.683000000     3.446000000     2.311000000
H     3.917000000     4.680000000     3.156000000
O     3.969000000    -0.082000000    -2.605000000
H     4.635000000    -0.716000000    -2.340000000
H     3.143000000    -0.562000000    -2.541000000
O     1.499000000    -1.068000000    -2.764000000
H     0.755000000    -1.012000000    -2.164000000
H     1.459000000    -0.257000000    -3.272000000
O    -0.218000000     7.888000000     0.304000000
H    -0.168000000     7.057000000     0.775000000
H     0.609000000     7.942000000    -0.175000000
O     0.939000000    -6.797000000     1.662000000
H     1.191000000    -6.096000000     1.061000000
H     0.035000000    -7.003000000     1.425000000
O    -1.396000000     4.702000000    -0.918000000
H    -2.149000000     4.303000000    -0.482000000
H    -0.636000000     4.308000000    -0.490000000
O    -1.875000000     2.072000000     3.568000000
H    -2.218000000     1.235000000     3.257000000
H    -2.200000000     2.714000000     2.937000000
O    -2.613000000    -5.476000000    -4.921000000
H    -1.710000000    -5.664000000    -4.664000000
H    -2.626000000    -5.617000000    -5.867000000
O    -0.794000000    -0.466000000    -5.761000000
H    -1.702000000    -0.168000000    -5.813000000
H    -0.782000000    -1.286000000    -6.255000000
O     0.311000000    -5.113000000     3.739000000
H     0.241000000    -5.607000000     4.556000000
H     0.540000000    -5.769000000     3.081000000
O     3.441000000    -1.702000000     3.494000000
H     3.870000000    -0.850000000     3.407000000
H     2.644000000    -1.519000000     3.991000000
O    -3.371000000     3.294000000     0.521000000
H    -3.363000000     2.363000000     0.742000000
H    -4.092000000     3.385000000    -0.102000000
O     1.100000000     1.083000000    -4.351000000
H     0.560000000     0.437000000    -4.806000000
H     1.615000000     1.496000000    -5.044000000
O    -3.354000000    -0.770000000    -4.656000000
H    -3.594000000    -1.356000000    -3.938000000
H    -3.788000000     0.057000000    -4.447000000
O     5.593000000     0.031000000     1.619000000
H     5.722000000     0.575000000     0.841000000
H     6.397000000    -0.485000000     1.686000000
O    -6.002000000    -3.756000000    -0.829000000
H    -5.172000000    -4.228000000    -0.886000000
H    -6.141000000    -3.409000000    -1.710000000
O     3.558000000     6.120000000     4.225000000
H     2.846000000     6.203000000     4.859000000
H     4.355000000     6.222000000     4.745000000
O     6.546000000     5.695000000     3.208000000
H     6.867000000     5.306000000     4.021000000
H     5.948000000     5.040000000     2.849000000
O     0.101000000    -1.639000000     4.619000000
H    -0.117000000    -1.514000000     3.696000000
H     0.119000000    -2.589000000     4.735000000
O    -1.725000000    -3.694000000    -3.035000000
H    -1.030000000    -3.545000000    -3.676000000
H    -2.508000000    -3.852000000    -3.563000000
O    -3.844000000    -2.002000000    -1.951000000
H    -3.050000000    -2.468000000    -2.212000000
H    -3.897000000    -2.129000000    -1.004000000
