158
-3035.54887
C    -0.001000000    -0.499000000     1.371000000
H    -0.085000000    -0.938000000     2.362000000
C    -0.869000000    -0.840000000     0.332000000
H    -1.732000000    -1.474000000     0.520000000
C    -0.872000000    -0.177000000    -0.821000000
H    -1.558000000    -0.291000000    -1.641000000
C     0.192000000     0.617000000    -1.223000000
H     0.307000000     1.046000000    -2.215000000
C     1.167000000     0.877000000    -0.214000000
H     2.028000000     1.479000000    -0.494000000
C     1.124000000     0.326000000     1.072000000
C     2.096000000     0.695000000     2.167000000
O     2.093000000     0.132000000     3.317000000
O     3.107000000     1.312000000     1.817000000
O     3.936000000    -1.069000000    -4.794000000
H     4.182000000    -0.537000000    -4.038000000
H     2.991000000    -0.941000000    -4.879000000
O    -4.538000000    -0.826000000    -2.133000000
H    -5.480000000    -0.702000000    -2.253000000
H    -4.315000000    -0.262000000    -1.392000000
O    -2.139000000     2.473000000    -4.404000000
H    -2.517000000     1.728000000    -3.935000000
H    -1.431000000     2.094000000    -4.925000000
O    -0.161000000     4.918000000    -5.275000000
H     0.556000000     4.898000000    -4.641000000
H    -0.172000000     4.038000000    -5.651000000
O    -1.443000000    -0.747000000    -5.559000000
H    -1.457000000    -1.225000000    -6.388000000
H    -2.281000000    -0.957000000    -5.147000000
O     5.841000000     1.798000000     5.690000000
H     5.877000000     2.029000000     6.618000000
H     4.911000000     1.658000000     5.514000000
O     4.311000000     5.278000000     0.935000000
H     3.836000000     6.108000000     0.888000000
H     3.779000000     4.730000000     1.513000000
O    -3.719000000    -1.292000000    -4.600000000
H    -4.473000000    -1.739000000    -4.984000000
H    -3.966000000    -1.147000000    -3.687000000
O     4.894000000     2.191000000     0.184000000
H     4.706000000     3.113000000     0.008000000
H     4.253000000     1.939000000     0.849000000
O     0.027000000     0.013000000     4.952000000
H    -0.762000000     0.419000000     4.594000000
H     0.677000000     0.096000000     4.255000000
O     4.845000000    -3.174000000     1.670000000
H     3.973000000    -2.898000000     1.952000000
H     5.406000000    -2.422000000     1.858000000
O    -4.327000000    -3.800000000    -2.189000000
H    -4.004000000    -4.062000000    -1.327000000
H    -3.771000000    -3.062000000    -2.439000000
O     7.190000000     2.982000000     3.699000000
H     6.563000000     3.692000000     3.561000000
H     6.874000000     2.532000000     4.482000000
O     0.285000000    -6.259000000     3.208000000
H     0.428000000    -5.319000000     3.096000000
H     0.075000000    -6.575000000     2.329000000
O     3.794000000    -1.070000000    -1.044000000
H     3.166000000    -1.594000000    -1.541000000
H     3.337000000    -0.247000000    -0.873000000
O     0.733000000    -3.481000000     2.282000000
H     1.211000000    -3.976000000     1.617000000
H     1.404000000    -3.210000000     2.908000000
O    -3.052000000    -3.714000000     1.197000000
H    -2.774000000    -3.975000000     2.075000000
H    -2.235000000    -3.541000000     0.729000000
O     6.025000000    -1.071000000     5.567000000
H     5.989000000    -1.376000000     4.660000000
H     6.077000000    -0.118000000     5.497000000
O     5.050000000     0.722000000    -2.999000000
H     4.698000000     0.424000000    -2.160000000
H     5.704000000     1.381000000    -2.764000000
O     2.688000000    -2.237000000     3.778000000
H     2.705000000    -2.171000000     4.732000000
H     2.516000000    -1.344000000     3.479000000
O    -3.589000000    -0.633000000     4.758000000
H    -3.143000000     0.201000000     4.615000000
H    -3.603000000    -1.049000000     3.896000000
O    -0.458000000    -2.458000000     5.939000000
H     0.381000000    -2.632000000     6.366000000
H    -0.353000000    -1.591000000     5.548000000
O     1.560000000     6.511000000    -2.126000000
H     1.413000000     5.720000000    -1.607000000
H     1.756000000     6.188000000    -3.005000000
O    -5.853000000     0.592000000    -5.110000000
H    -5.459000000    -0.278000000    -5.040000000
H    -5.445000000     0.978000000    -5.885000000
O     3.121000000     3.770000000     3.160000000
H     3.591000000     3.993000000     3.964000000
H     3.052000000     2.815000000     3.181000000
O     7.392000000     2.647000000     0.902000000
H     7.424000000     2.914000000     1.820000000
H     6.459000000     2.544000000     0.715000000
O     0.603000000     3.981000000     1.756000000
H    -0.100000000     4.192000000     2.371000000
H     1.398000000     3.991000000     2.288000000
O    -5.438000000     3.070000000    -3.820000000
H    -5.116000000     3.908000000    -4.153000000
H    -5.226000000     2.441000000    -4.509000000
O     2.485000000     6.429000000     2.476000000
H     1.611000000     6.818000000     2.460000000
H     2.364000000     5.585000000     2.910000000
O     3.202000000     0.988000000     5.348000000
H     2.945000000     0.766000000     4.453000000
H     2.402000000     0.875000000     5.861000000
O    -0.821000000    -4.502000000    -0.600000000
H     0.101000000    -4.316000000    -0.419000000
H    -0.864000000    -4.590000000    -1.552000000
O     5.824000000    -0.294000000     2.220000000
H     5.961000000     0.247000000     1.442000000
H     4.881000000    -0.249000000     2.381000000
O     2.012000000    -2.823000000    -2.213000000
H     1.243000000    -2.262000000    -2.313000000
H     1.919000000    -3.482000000    -2.901000000
O     1.195000000     3.998000000    -0.940000000
H     0.305000000     3.667000000    -1.064000000
H     1.242000000     4.214000000    -0.009000000
O    -1.626000000     1.346000000    -7.683000000
H    -0.967000000     1.878000000    -8.128000000
H    -1.120000000     0.725000000    -7.160000000
O    -4.409000000     0.965000000     0.025000000
H    -5.110000000     1.577000000    -0.198000000
H    -3.689000000     1.521000000     0.321000000
O     0.923000000     1.931000000    -5.490000000
H     1.594000000     1.942000000    -6.172000000
H     1.393000000     2.156000000    -4.687000000
O    -1.749000000     2.093000000     0.919000000
H    -1.289000000     2.754000000     0.401000000
H    -1.232000000     1.296000000     0.802000000
O    -2.135000000     1.332000000     3.820000000
H    -2.153000000     1.607000000     2.903000000
H    -2.229000000     2.145000000     4.316000000
O     2.431000000     2.514000000    -3.264000000
H     2.683000000     3.419000000    -3.449000000
H     2.156000000     2.525000000    -2.347000000
O    -6.055000000     2.894000000    -0.755000000
H    -5.932000000     3.066000000    -1.689000000
H    -6.554000000     3.646000000    -0.437000000
O    -1.511000000     3.612000000    -1.901000000
H    -1.684000000     3.184000000    -2.739000000
H    -1.882000000     4.489000000    -2.000000000
O    -1.353000000    -3.935000000     3.977000000
H    -1.259000000    -3.368000000     4.742000000
H    -0.806000000    -3.526000000     3.306000000
O     3.765000000    -1.543000000     6.681000000
H     4.420000000    -1.160000000     6.098000000
H     3.834000000    -1.033000000     7.488000000
O    -2.588000000    -5.625000000    -3.294000000
H    -2.596000000    -5.904000000    -4.210000000
H    -3.290000000    -4.978000000    -3.234000000
O    -2.236000000    -0.341000000     7.318000000
H    -2.296000000    -1.086000000     7.916000000
H    -2.285000000    -0.730000000     6.445000000
O     1.251000000    -1.321000000    -5.026000000
H     0.358000000    -0.979000000    -4.984000000
H     1.200000000    -2.052000000    -5.641000000
O    -4.384000000    -1.290000000     2.032000000
H    -4.164000000    -2.108000000     1.585000000
H    -4.516000000    -0.659000000     1.325000000
