158
-3044.81787
C     1.093000000    -0.378000000     0.896000000
H     1.833000000    -0.793000000     1.575000000
C     0.229000000    -1.278000000     0.324000000
H     0.350000000    -2.351000000     0.450000000
C    -0.778000000    -0.811000000    -0.517000000
H    -1.550000000    -1.470000000    -0.920000000
C    -0.930000000     0.559000000    -0.764000000
H    -1.784000000     1.021000000    -1.253000000
C     0.104000000     1.439000000    -0.309000000
H     0.049000000     2.475000000    -0.633000000
C     1.015000000     0.995000000     0.660000000
C     1.934000000     1.958000000     1.374000000
O     2.413000000     1.631000000     2.458000000
O     1.997000000     3.122000000     1.028000000
O     3.733000000    -1.305000000    -2.911000000
H     2.802000000    -1.330000000    -3.131000000
H     4.067000000    -2.159000000    -3.185000000
O    -6.005000000     2.281000000    -2.833000000
H    -5.107000000     2.557000000    -2.649000000
H    -6.222000000     2.708000000    -3.661000000
O    -3.015000000     4.966000000    -3.112000000
H    -2.658000000     4.805000000    -2.239000000
H    -3.708000000     5.611000000    -2.973000000
O    -4.873000000    -3.190000000     3.151000000
H    -5.274000000    -4.059000000     3.182000000
H    -3.936000000    -3.361000000     3.065000000
O    -1.253000000    -0.952000000    -6.691000000
H    -1.638000000    -1.303000000    -7.494000000
H    -0.722000000    -1.670000000    -6.346000000
O     3.344000000     6.916000000    -1.925000000
H     3.410000000     7.215000000    -1.018000000
H     2.888000000     6.076000000    -1.868000000
O     5.335000000     2.962000000    -1.371000000
H     4.612000000     2.668000000    -1.925000000
H     5.230000000     2.467000000    -0.558000000
O     0.767000000     1.267000000     4.791000000
H     0.000000000     1.805000000     4.598000000
H     1.242000000     1.220000000     3.961000000
O     1.216000000    -4.849000000     1.737000000
H     2.034000000    -4.727000000     2.219000000
H     1.400000000    -4.509000000     0.862000000
O     2.019000000    -4.036000000    -0.920000000
H     1.653000000    -3.358000000    -1.487000000
H     2.933000000    -4.109000000    -1.194000000
O    -3.576000000    -4.021000000    -3.412000000
H    -3.790000000    -4.923000000    -3.177000000
H    -3.986000000    -3.893000000    -4.268000000
O     5.063000000    -3.037000000     2.158000000
H     5.657000000    -3.752000000     1.929000000
H     5.629000000    -2.268000000     2.224000000
O    -0.260000000     6.065000000    -3.626000000
H    -0.832000000     5.299000000    -3.669000000
H     0.490000000     5.776000000    -3.105000000
O     5.716000000     5.533000000     3.430000000
H     6.211000000     5.287000000     4.211000000
H     4.948000000     4.963000000     3.443000000
O    -3.073000000    -5.645000000    -0.162000000
H    -2.294000000    -5.792000000    -0.699000000
H    -3.751000000    -6.181000000    -0.573000000
O     2.337000000     1.760000000    -2.027000000
H     2.805000000     0.927000000    -1.969000000
H     1.616000000     1.588000000    -2.632000000
O     2.644000000     1.083000000     6.819000000
H     3.177000000     1.872000000     6.919000000
H     2.056000000     1.282000000     6.091000000
O     5.077000000     1.681000000     1.110000000
H     4.355000000     2.088000000     1.589000000
H     4.693000000     0.898000000     0.718000000
O     3.526000000    -0.560000000     3.504000000
H     4.149000000    -0.963000000     2.900000000
H     3.081000000     0.106000000     2.979000000
O     0.889000000    -2.027000000     5.251000000
H     0.559000000    -2.562000000     4.530000000
H     0.636000000    -1.133000000     5.021000000
O    -0.341000000    -5.593000000    -1.494000000
H     0.393000000    -5.066000000    -1.176000000
H    -0.784000000    -5.028000000    -2.127000000
O    -3.041000000     0.279000000     1.592000000
H    -3.892000000     0.334000000     1.157000000
H    -2.406000000     0.289000000     0.876000000
O    -4.792000000    -3.161000000    -0.048000000
H    -4.997000000    -3.281000000     0.879000000
H    -4.276000000    -3.933000000    -0.281000000
O     3.892000000    -1.349000000     6.079000000
H     3.630000000    -0.574000000     6.575000000
H     3.947000000    -1.046000000     5.172000000
O    -6.986000000    -0.299000000    -3.127000000
H    -6.294000000    -0.862000000    -2.781000000
H    -6.662000000     0.591000000    -2.988000000
O     3.157000000     5.427000000     1.462000000
H     2.673000000     5.704000000     2.239000000
H     2.887000000     4.519000000     1.322000000
O    -0.178000000     4.143000000     2.142000000
H    -0.224000000     3.828000000     3.045000000
H     0.635000000     3.771000000     1.800000000
O     1.816000000     4.522000000    -1.572000000
H     2.144000000     3.638000000    -1.735000000
H     1.535000000     4.508000000    -0.657000000
O     3.950000000     3.415000000     3.758000000
H     3.265000000     3.100000000     3.168000000
H     3.992000000     2.755000000     4.450000000
O     4.558000000    -0.591000000    -0.020000000
H     4.424000000    -0.816000000    -0.941000000
H     4.423000000    -1.414000000     0.449000000
O     1.073000000    -1.939000000    -3.519000000
H     0.352000000    -2.538000000    -3.322000000
H     0.660000000    -1.077000000    -3.571000000
O    -0.955000000    -6.684000000     2.470000000
H    -0.225000000    -6.180000000     2.109000000
H    -1.183000000    -7.305000000     1.777000000
O    -2.185000000     4.560000000     0.034000000
H    -2.992000000     4.271000000     0.459000000
H    -1.499000000     4.390000000     0.680000000
O    -1.541000000     2.630000000     4.359000000
H    -2.187000000     2.128000000     3.862000000
H    -1.990000000     3.446000000     4.580000000
O    -1.965000000     1.272000000    -5.403000000
H    -2.873000000     1.402000000    -5.129000000
H    -1.951000000     0.389000000    -5.772000000
O    -2.625000000    -4.413000000     2.273000000
H    -1.822000000    -4.882000000     2.501000000
H    -2.880000000    -4.775000000     1.424000000
O     2.769000000    -3.630000000     3.851000000
H     2.720000000    -2.886000000     4.451000000
H     3.389000000    -3.353000000     3.176000000
O    -5.519000000     0.417000000     0.152000000
H    -6.346000000     0.315000000     0.624000000
H    -5.780000000     0.621000000    -0.746000000
O    -3.994000000     2.299000000     3.218000000
H    -4.795000000     2.022000000     3.661000000
H    -3.791000000     1.582000000     2.617000000
O     0.353000000     0.771000000    -4.130000000
H    -0.507000000     0.824000000    -4.547000000
H     0.836000000     1.519000000    -4.482000000
O    -4.553000000     0.503000000    -5.065000000
H    -4.928000000     0.096000000    -4.284000000
H    -5.228000000     1.112000000    -5.365000000
O    -0.486000000    -4.008000000     3.878000000
H     0.190000000    -4.038000000     3.201000000
H    -0.021000000    -4.212000000     4.689000000
O     6.196000000    -0.667000000     2.340000000
H     5.782000000    -0.011000000     1.779000000
H     6.967000000    -0.226000000     2.697000000
O     6.889000000     4.481000000     1.285000000
H     6.445000000     4.751000000     2.089000000
H     6.418000000     3.696000000     1.005000000
O    -2.078000000    -1.753000000     3.444000000
H    -2.180000000    -1.393000000     2.563000000
H    -2.005000000    -2.697000000     3.309000000
O     2.370000000    -3.917000000    -4.866000000
H     2.907000000    -3.235000000    -5.269000000
H     1.816000000    -3.449000000    -4.242000000
O    -0.780000000    -4.022000000    -3.585000000
H    -0.419000000    -4.617000000    -4.242000000
H    -1.711000000    -3.963000000    -3.800000000
O    -4.618000000    -1.648000000    -2.221000000
H    -4.300000000    -2.368000000    -2.766000000
H    -4.882000000    -2.067000000    -1.402000000
