158
-3038.76733
C     1.448000000    -0.202000000     0.247000000
H     2.527000000    -0.318000000     0.298000000
C     0.605000000    -1.089000000    -0.467000000
H     0.949000000    -2.073000000    -0.776000000
C    -0.696000000    -0.703000000    -0.730000000
H    -1.404000000    -1.322000000    -1.263000000
C    -1.181000000     0.498000000    -0.196000000
H    -2.209000000     0.780000000    -0.408000000
C    -0.409000000     1.333000000     0.602000000
H    -0.858000000     2.205000000     1.070000000
C     0.931000000     0.967000000     0.829000000
C     1.843000000     1.812000000     1.662000000
O     1.436000000     2.898000000     1.955000000
O     2.808000000     1.316000000     2.177000000
O     2.856000000    -6.704000000     0.364000000
H     2.825000000    -5.785000000     0.632000000
H     3.395000000    -7.130000000     1.030000000
O     4.348000000     4.434000000    -0.541000000
H     4.324000000     5.288000000    -0.973000000
H     3.685000000     3.916000000    -0.996000000
O    -0.180000000    -6.963000000    -0.465000000
H     0.139000000    -7.219000000    -1.330000000
H     0.459000000    -7.330000000     0.145000000
O     5.033000000     0.438000000     4.849000000
H     4.878000000     0.595000000     5.781000000
H     4.674000000     1.211000000     4.414000000
O     2.908000000    -3.668000000    -3.273000000
H     3.104000000    -3.199000000    -4.084000000
H     2.552000000    -4.508000000    -3.561000000
O     3.602000000     4.394000000     2.914000000
H     4.062000000     4.343000000     2.076000000
H     2.939000000     3.705000000     2.867000000
O     5.097000000     2.990000000     6.523000000
H     4.281000000     2.547000000     6.291000000
H     5.405000000     2.531000000     7.304000000
O    -1.056000000    -3.749000000    -2.769000000
H    -0.708000000    -3.947000000    -1.900000000
H    -1.227000000    -4.607000000    -3.160000000
O    -4.187000000     2.216000000     3.886000000
H    -4.211000000     1.283000000     4.098000000
H    -4.675000000     2.288000000     3.066000000
O    -1.982000000     6.897000000     1.243000000
H    -2.655000000     6.486000000     1.786000000
H    -1.366000000     6.190000000     1.049000000
O    -0.378000000    -3.942000000     2.608000000
H    -0.774000000    -4.673000000     3.083000000
H    -0.450000000    -3.200000000     3.207000000
O    -1.795000000    -2.837000000    -6.115000000
H    -1.817000000    -1.954000000    -5.745000000
H    -0.864000000    -3.060000000    -6.146000000
O    -4.993000000     5.585000000    -0.958000000
H    -4.337000000     4.889000000    -0.933000000
H    -4.518000000     6.372000000    -0.691000000
O     0.588000000    -1.936000000     4.280000000
H     0.765000000    -0.998000000     4.208000000
H    -0.013000000    -2.009000000     5.022000000
O    -4.133000000     2.456000000    -1.119000000
H    -3.973000000     1.592000000    -1.498000000
H    -3.364000000     2.971000000    -1.363000000
O     2.394000000    -4.000000000     1.469000000
H     2.684000000    -3.153000000     1.806000000
H     1.440000000    -3.976000000     1.547000000
O     2.542000000     6.143000000     4.761000000
H     2.630000000     7.041000000     4.442000000
H     2.818000000     5.598000000     4.024000000
O    -4.517000000    -0.151000000    -2.156000000
H    -4.141000000    -0.835000000    -2.711000000
H    -5.123000000    -0.617000000    -1.579000000
O    -2.908000000    -7.154000000    -1.612000000
H    -2.556000000    -7.161000000    -2.502000000
H    -2.157000000    -6.941000000    -1.059000000
O     6.537000000     2.858000000     0.190000000
H     6.098000000     2.180000000     0.704000000
H     5.853000000     3.501000000     0.007000000
O     3.337000000     3.510000000    -3.510000000
H     2.855000000     4.130000000    -4.056000000
H     2.706000000     3.235000000    -2.844000000
O     6.194000000    -0.571000000    -0.591000000
H     6.106000000    -1.517000000    -0.477000000
H     5.851000000    -0.199000000     0.221000000
O    -5.242000000     2.325000000     1.388000000
H    -6.025000000     2.728000000     1.012000000
H    -4.622000000     2.281000000     0.660000000
O     0.637000000    -1.582000000    -3.672000000
H     0.904000000    -1.453000000    -2.762000000
H    -0.015000000    -2.282000000    -3.633000000
O    -3.452000000    -2.484000000    -3.436000000
H    -2.606000000    -2.848000000    -3.696000000
H    -3.655000000    -2.918000000    -2.607000000
O     2.137000000     6.807000000     0.146000000
H     3.017000000     6.903000000     0.512000000
H     1.728000000     7.663000000     0.279000000
O    -6.948000000     1.873000000    -1.131000000
H    -6.776000000     1.010000000    -1.508000000
H    -6.124000000     2.349000000    -1.235000000
O     1.465000000     3.212000000    -1.433000000
H     0.865000000     3.865000000    -1.074000000
H     1.111000000     2.373000000    -1.136000000
O    -3.230000000     4.813000000     3.107000000
H    -3.291000000     3.920000000     3.447000000
H    -4.120000000     5.021000000     2.822000000
O     5.878000000    -1.597000000     3.269000000
H     5.009000000    -1.874000000     2.978000000
H     5.712000000    -0.839000000     3.830000000
O     1.654000000    -0.278000000    -5.989000000
H     2.130000000     0.552000000    -5.950000000
H     1.082000000    -0.262000000    -5.222000000
O     0.119000000     5.072000000     0.528000000
H     0.774000000     5.760000000     0.414000000
H     0.587000000     4.369000000     0.980000000
O    -2.055000000     2.758000000    -5.324000000
H    -2.417000000     3.102000000    -4.507000000
H    -1.671000000     3.522000000    -5.755000000
O     3.211000000    -1.431000000     2.610000000
H     2.827000000    -1.752000000     3.426000000
H     2.788000000    -0.585000000     2.463000000
O    -1.955000000     0.074000000    -5.808000000
H    -2.860000000    -0.179000000    -5.630000000
H    -1.936000000     1.019000000    -5.655000000
O    -6.046000000    -1.080000000     1.808000000
H    -6.727000000    -0.478000000     1.508000000
H    -5.738000000    -1.509000000     1.009000000
O     1.928000000     0.294000000     4.826000000
H     1.925000000     0.893000000     5.573000000
H     2.165000000     0.844000000     4.079000000
O    -3.723000000    -3.959000000    -1.241000000
H    -3.904000000    -4.893000000    -1.135000000
H    -2.838000000    -3.845000000    -0.894000000
O     1.500000000     3.763000000     5.907000000
H     1.767000000     4.673000000     5.775000000
H     0.689000000     3.676000000     5.407000000
O    -1.112000000    -4.449000000    -0.122000000
H    -0.698000000    -5.312000000    -0.132000000
H    -1.164000000    -4.218000000     0.805000000
O     4.293000000    -3.239000000    -0.975000000
H     3.768000000    -3.168000000    -1.772000000
H     3.705000000    -3.644000000    -0.337000000
O     5.301000000     0.723000000     1.464000000
H     4.501000000     1.109000000     1.819000000
H     5.301000000    -0.175000000     1.796000000
O    -0.220000000     7.028000000     3.912000000
H     0.547000000     7.290000000     4.420000000
H    -0.116000000     6.084000000     3.790000000
O     0.805000000    -3.639000000    -5.913000000
H     1.046000000    -4.104000000    -6.715000000
H     1.630000000    -3.281000000    -5.586000000
O    -5.970000000    -2.705000000    -4.496000000
H    -6.059000000    -3.647000000    -4.641000000
H    -5.101000000    -2.603000000    -4.106000000
O    -5.994000000    -2.211000000    -0.868000000
H    -5.484000000    -2.974000000    -1.141000000
H    -6.900000000    -2.445000000    -1.066000000
O    -2.050000000     4.594000000    -1.303000000
H    -1.629000000     5.128000000    -1.977000000
H    -1.481000000     4.680000000    -0.539000000
O    -0.186000000     4.200000000     3.801000000
H    -0.992000000     4.302000000     3.295000000
H     0.365000000     3.633000000     3.262000000
