158
-3038.41253
C    -0.220000000    -0.712000000     1.303000000
H    -0.469000000    -1.196000000     2.244000000
C    -1.002000000    -0.845000000     0.175000000
H    -1.789000000    -1.595000000     0.169000000
C    -0.711000000    -0.185000000    -0.993000000
H    -1.253000000    -0.355000000    -1.875000000
C     0.333000000     0.740000000    -0.987000000
H     0.567000000     1.345000000    -1.860000000
C     1.095000000     0.905000000     0.135000000
H     1.924000000     1.606000000     0.101000000
C     0.892000000     0.113000000     1.280000000
C     1.847000000     0.224000000     2.504000000
O     2.046000000    -0.616000000     3.315000000
O     2.633000000     1.134000000     2.480000000
O    -5.001000000    -1.171000000    -1.031000000
H    -4.277000000    -1.719000000    -1.335000000
H    -4.576000000    -0.405000000    -0.646000000
O    -3.418000000     1.727000000    -2.581000000
H    -3.303000000     0.791000000    -2.747000000
H    -2.748000000     2.150000000    -3.118000000
O     3.129000000     0.918000000    -3.831000000
H     4.045000000     0.645000000    -3.889000000
H     3.168000000     1.869000000    -3.731000000
O    -3.094000000     0.532000000    -6.242000000
H    -2.783000000    -0.108000000    -6.882000000
H    -2.943000000     0.115000000    -5.394000000
O     5.803000000     1.515000000     6.109000000
H     5.242000000     1.992000000     6.720000000
H     5.375000000     1.617000000     5.259000000
O     4.262000000     4.966000000     2.501000000
H     4.388000000     5.128000000     1.566000000
H     3.376000000     4.611000000     2.566000000
O    -2.809000000    -0.935000000    -3.872000000
H    -2.145000000    -1.516000000    -3.500000000
H    -3.508000000    -1.522000000    -4.158000000
O     2.570000000     3.533000000    -2.089000000
H     2.760000000     3.633000000    -3.022000000
H     1.733000000     3.071000000    -2.063000000
O    -0.823000000     2.803000000     3.761000000
H    -0.935000000     2.740000000     2.812000000
H    -0.775000000     3.743000000     3.935000000
O     5.672000000    -3.722000000     1.603000000
H     5.300000000    -4.584000000     1.418000000
H     4.973000000    -3.251000000     2.056000000
O     7.124000000     0.576000000     1.973000000
H     7.361000000    -0.326000000     1.756000000
H     7.724000000     1.113000000     1.456000000
O    -6.142000000    -3.566000000    -0.271000000
H    -5.435000000    -3.635000000     0.371000000
H    -5.968000000    -2.744000000    -0.730000000
O    -0.800000000    -4.136000000     1.549000000
H    -1.332000000    -4.352000000     0.784000000
H    -0.985000000    -4.836000000     2.176000000
O     4.493000000     2.265000000     3.882000000
H     4.505000000     3.152000000     3.522000000
H     3.925000000     1.774000000     3.289000000
O    -0.333000000     2.062000000     6.469000000
H    -0.145000000     1.484000000     5.729000000
H    -0.488000000     2.918000000     6.071000000
O     1.739000000    -3.258000000     1.750000000
H     1.575000000    -2.985000000     2.652000000
H     0.898000000    -3.601000000     1.447000000
O    -0.297000000    -4.566000000     4.740000000
H    -0.170000000    -5.496000000     4.554000000
H     0.545000000    -4.162000000     4.533000000
O    -3.934000000    -3.742000000     1.246000000
H    -3.243000000    -3.971000000     1.868000000
H    -3.579000000    -3.992000000     0.392000000
O     3.106000000    -1.842000000    -0.434000000
H     2.821000000    -2.396000000     0.293000000
H     3.624000000    -1.152000000    -0.020000000
O     1.258000000     1.192000000    -6.018000000
H     1.228000000     0.392000000    -6.543000000
H     1.797000000     0.962000000    -5.262000000
O     1.824000000    -2.900000000     4.688000000
H     2.292000000    -3.093000000     5.500000000
H     2.073000000    -2.001000000     4.476000000
O    -0.410000000    -0.989000000     4.762000000
H     0.330000000    -1.493000000     5.101000000
H    -0.096000000    -0.630000000     3.932000000
O     1.024000000     6.520000000    -3.131000000
H     0.895000000     5.684000000    -2.682000000
H     1.570000000     7.030000000    -2.533000000
O    -5.771000000     1.605000000    -5.352000000
H    -5.194000000     0.887000000    -5.611000000
H    -5.898000000     2.112000000    -6.154000000
O     1.917000000     3.587000000     2.326000000
H     1.352000000     3.733000000     3.084000000
H     2.006000000     2.635000000     2.273000000
O     0.072000000     5.555000000     0.832000000
H    -0.859000000     5.451000000     1.026000000
H     0.513000000     4.989000000     1.465000000
O    -5.634000000     2.827000000    -2.220000000
H    -4.825000000     2.315000000    -2.199000000
H    -5.707000000     3.122000000    -3.127000000
O     2.553000000     1.077000000     5.438000000
H     2.367000000     0.733000000     4.565000000
H     3.122000000     1.831000000     5.282000000
O    -2.466000000    -3.955000000    -1.355000000
H    -1.774000000    -3.412000000    -1.733000000
H    -2.203000000    -4.853000000    -1.557000000
O     5.572000000    -0.245000000    -1.796000000
H     5.103000000     0.158000000    -1.065000000
H     5.753000000     0.481000000    -2.393000000
O     4.562000000     0.015000000     0.655000000
H     5.363000000     0.439000000     0.963000000
H     3.856000000     0.502000000     1.080000000
O    -0.590000000    -2.694000000    -2.875000000
H     0.119000000    -2.073000000    -2.709000000
H    -0.151000000    -3.538000000    -2.977000000
O     3.331000000    -5.400000000     1.516000000
H     2.884000000    -4.565000000     1.658000000
H     3.460000000    -5.755000000     2.395000000
O    -0.165000000     4.204000000    -1.687000000
H    -1.014000000     3.777000000    -1.803000000
H    -0.202000000     4.574000000    -0.805000000
O     4.049000000     5.388000000    -0.385000000
H     3.485000000     6.145000000    -0.543000000
H     3.640000000     4.678000000    -0.879000000
O    -4.277000000     0.633000000     1.165000000
H    -4.812000000     1.353000000     1.498000000
H    -3.375000000     0.918000000     1.307000000
O    -4.645000000    -3.193000000    -3.814000000
H    -5.527000000    -2.822000000    -3.777000000
H    -4.595000000    -3.768000000    -3.051000000
O    -2.206000000     2.905000000    -4.718000000
H    -2.188000000     3.715000000    -5.227000000
H    -2.457000000     2.231000000    -5.350000000
O    -1.459000000     2.409000000     1.045000000
H    -1.706000000     2.911000000     0.268000000
H    -0.900000000     1.708000000     0.709000000
O    -3.842000000     1.732000000     4.625000000
H    -2.951000000     1.868000000     4.302000000
H    -3.901000000     2.284000000     5.405000000
O     2.034000000     3.466000000    -4.676000000
H     2.064000000     4.247000000    -5.228000000
H     1.635000000     2.795000000    -5.230000000
O    -2.683000000     3.513000000    -0.823000000
H    -3.026000000     2.740000000    -1.273000000
H    -3.321000000     4.202000000    -1.009000000
O    -2.814000000    -3.445000000     3.790000000
H    -2.907000000    -2.494000000     3.742000000
H    -2.060000000    -3.584000000     4.364000000
O     4.611000000    -1.650000000     3.136000000
H     3.662000000    -1.532000000     3.176000000
H     4.953000000    -0.775000000     2.954000000
O    -2.857000000    -5.507000000    -4.436000000
H    -2.221000000    -6.146000000    -4.758000000
H    -2.457000000    -4.657000000    -4.623000000
O    -2.996000000    -0.686000000     6.909000000
H    -2.969000000    -1.569000000     7.278000000
H    -2.382000000    -0.714000000     6.176000000
O     2.060000000    -1.550000000    -2.982000000
H     2.301000000    -1.745000000    -2.077000000
H     2.270000000    -0.622000000    -3.091000000
O    -5.191000000    -1.536000000     2.461000000
H    -4.866000000    -2.357000000     2.090000000
H    -4.993000000    -0.877000000     1.795000000
