158
-3024.77748
C    -0.184000000    -1.495000000     0.180000000
H    -0.598000000    -2.496000000     0.268000000
C    -0.948000000    -0.590000000    -0.600000000
H    -1.691000000    -0.952000000    -1.306000000
C    -0.611000000     0.736000000    -0.759000000
H    -1.106000000     1.321000000    -1.520000000
C     0.430000000     1.195000000     0.005000000
H     0.837000000     2.192000000    -0.137000000
C     1.152000000     0.335000000     0.814000000
H     1.946000000     0.832000000     1.365000000
C     0.783000000    -0.989000000     0.994000000
C     1.474000000    -1.888000000     1.943000000
O     1.060000000    -2.962000000     2.218000000
O     2.375000000    -1.460000000     2.665000000
O     1.646000000    -6.247000000    -1.948000000
H     2.556000000    -6.111000000    -2.213000000
H     1.254000000    -5.374000000    -1.979000000
O    -1.806000000     6.543000000    -2.316000000
H    -2.728000000     6.660000000    -2.548000000
H    -1.337000000     7.154000000    -2.884000000
O    -3.353000000     2.397000000    -2.001000000
H    -2.738000000     3.129000000    -1.972000000
H    -3.159000000     1.954000000    -2.828000000
O    -3.362000000     5.273000000    -4.735000000
H    -3.635000000     5.752000000    -5.518000000
H    -3.340000000     4.357000000    -5.010000000
O    -2.734000000     7.035000000     0.384000000
H    -2.374000000     6.585000000    -0.380000000
H    -3.166000000     6.344000000     0.887000000
O    -5.177000000     1.013000000    -5.565000000
H    -4.298000000     1.127000000    -5.206000000
H    -5.748000000     1.477000000    -4.953000000
O     3.689000000     4.583000000     2.845000000
H     3.062000000     3.949000000     3.192000000
H     3.314000000     5.436000000     3.065000000
O    -3.519000000    -1.864000000    -3.442000000
H    -3.429000000    -2.222000000    -2.559000000
H    -3.117000000    -2.523000000    -4.009000000
O     5.654000000    -2.812000000     4.675000000
H     4.877000000    -2.975000000     4.139000000
H     5.821000000    -1.875000000     4.575000000
O    -2.780000000     3.288000000     3.393000000
H    -1.994000000     3.665000000     2.995000000
H    -3.043000000     2.593000000     2.790000000
O    -0.899000000    -7.466000000     0.167000000
H    -0.520000000    -6.608000000     0.354000000
H    -0.145000000    -8.027000000    -0.013000000
O     4.250000000     0.622000000     2.614000000
H     3.684000000    -0.129000000     2.792000000
H     3.719000000     1.383000000     2.849000000
O    -0.055000000    -6.365000000     4.200000000
H     0.026000000    -6.306000000     5.152000000
H     0.307000000    -7.224000000     3.981000000
O    -0.185000000     4.213000000     2.778000000
H    -0.277000000     5.150000000     2.606000000
H     0.575000000     3.948000000     2.261000000
O    -1.239000000    -0.051000000     3.835000000
H    -1.977000000     0.287000000     4.342000000
H    -1.526000000     0.011000000     2.924000000
O     4.874000000     2.964000000     0.883000000
H     4.328000000     3.469000000     1.486000000
H     5.155000000     2.205000000     1.395000000
O     2.489000000    -5.625000000     2.781000000
H     2.644000000    -5.838000000     3.702000000
H     1.762000000    -5.004000000     2.798000000
O     3.139000000     3.288000000    -5.146000000
H     3.107000000     3.302000000    -4.190000000
H     2.321000000     3.703000000    -5.420000000
O     1.135000000    -4.057000000     7.280000000
H     0.605000000    -3.260000000     7.291000000
H     1.398000000    -4.158000000     6.365000000
O     3.691000000    -1.937000000    -0.421000000
H     4.461000000    -1.990000000     0.145000000
H     3.696000000    -1.037000000    -0.749000000
O    -2.830000000     0.933000000    -4.192000000
H    -2.971000000     0.114000000    -3.717000000
H    -2.231000000     0.699000000    -4.901000000
O     2.048000000    -3.090000000     4.782000000
H     1.633000000    -2.749000000     3.990000000
H     2.833000000    -2.554000000     4.891000000
O    -3.808000000    -3.961000000     4.418000000
H    -3.011000000    -3.830000000     3.904000000
H    -4.509000000    -3.998000000     3.768000000
O    -1.421000000    -4.123000000     3.226000000
H    -1.110000000    -4.967000000     3.552000000
H    -0.624000000    -3.647000000     2.994000000
O     3.464000000    -0.608000000     6.082000000
H     3.684000000    -0.004000000     6.791000000
H     2.702000000    -0.213000000     5.658000000
O     2.836000000     2.328000000     4.210000000
H     2.504000000     2.994000000     4.812000000
H     2.402000000     1.520000000     4.483000000
O     1.277000000     4.816000000     0.592000000
H     2.223000000     4.760000000     0.732000000
H     1.137000000     5.699000000     0.249000000
O    -5.171000000     5.387000000    -2.340000000
H    -5.055000000     4.446000000    -2.207000000
H    -4.938000000     5.530000000    -3.257000000
O     1.302000000     0.218000000     4.755000000
H     1.805000000    -0.031000000     3.980000000
H     0.397000000    -0.001000000     4.534000000
O    -2.850000000    -5.595000000    -0.952000000
H    -2.471000000    -5.077000000    -1.662000000
H    -2.123000000    -6.126000000    -0.628000000
O     1.393000000    -8.285000000     2.562000000
H     1.901000000    -7.474000000     2.600000000
H     1.046000000    -8.309000000     1.671000000
O     6.853000000    -3.315000000     1.248000000
H     7.005000000    -2.480000000     1.690000000
H     6.091000000    -3.686000000     1.694000000
O    -3.134000000    -6.109000000     2.159000000
H    -3.266000000    -6.043000000     1.213000000
H    -2.616000000    -5.335000000     2.383000000
O    -0.863000000    -4.131000000    -2.639000000
H    -0.244000000    -3.400000000    -2.654000000
H    -0.448000000    -4.807000000    -3.175000000
O     0.306000000    -4.959000000     0.574000000
H     0.461000000    -4.221000000     1.163000000
H     0.745000000    -4.711000000    -0.240000000
O     0.613000000     3.321000000    -3.179000000
H     0.033000000     3.464000000    -2.431000000
H     0.044000000     2.959000000    -3.858000000
O     2.968000000     3.689000000    -1.863000000
H     2.078000000     3.567000000    -2.193000000
H     3.003000000     4.609000000    -1.604000000
O    -5.299000000     2.264000000    -0.117000000
H    -5.996000000     1.771000000    -0.550000000
H    -4.525000000     2.111000000    -0.658000000
O     0.392000000    -1.825000000    -3.843000000
H     0.166000000    -1.050000000    -4.358000000
H    -0.360000000    -2.408000000    -3.945000000
O    -0.651000000    -0.049000000    -5.772000000
H    -0.360000000     0.623000000    -6.388000000
H    -1.154000000    -0.663000000    -6.308000000
O    -2.787000000     0.596000000     1.448000000
H    -2.415000000     0.372000000     0.594000000
H    -3.711000000     0.772000000     1.268000000
O     3.190000000     0.742000000    -1.860000000
H     2.260000000     0.959000000    -1.791000000
H     3.643000000     1.550000000    -1.618000000
O    -1.197000000     4.112000000    -1.200000000
H    -0.516000000     4.252000000    -0.542000000
H    -1.371000000     4.984000000    -1.554000000
O     4.189000000    -3.618000000     2.130000000
H     3.601000000    -2.879000000     1.973000000
H     3.653000000    -4.392000000     1.954000000
O     5.782000000     0.148000000     4.780000000
H     4.966000000    -0.024000000     5.251000000
H     5.500000000     0.493000000     3.933000000
O    -4.265000000     4.783000000     1.432000000
H    -4.543000000     3.991000000     0.972000000
H    -3.938000000     4.469000000     2.275000000
O    -6.883000000     0.698000000    -1.949000000
H    -7.003000000     1.372000000    -2.619000000
H    -6.762000000    -0.112000000    -2.444000000
O     1.731000000    -3.540000000    -1.383000000
H     2.546000000    -3.152000000    -1.064000000
H     1.168000000    -2.789000000    -1.575000000
