158
-3049.12710
C    -0.585000000    -1.153000000     0.750000000
H    -0.797000000    -2.125000000     1.188000000
C    -0.003000000    -1.175000000    -0.580000000
H     0.299000000    -2.138000000    -0.983000000
C     0.490000000     0.015000000    -1.127000000
H     1.009000000    -0.008000000    -2.089000000
C     0.341000000     1.238000000    -0.477000000
H     0.765000000     2.128000000    -0.935000000
C    -0.224000000     1.235000000     0.799000000
H    -0.336000000     2.159000000     1.360000000
C    -0.732000000     0.049000000     1.383000000
C    -1.359000000     0.020000000     2.745000000
O    -1.695000000    -1.089000000     3.169000000
O    -1.412000000     1.021000000     3.485000000
O    -4.259000000    -3.771000000     4.847000000
H    -4.555000000    -2.911000000     5.146000000
H    -3.641000000    -4.058000000     5.519000000
O     0.663000000     4.891000000     0.240000000
H    -0.095000000     4.857000000     0.824000000
H     0.681000000     5.794000000    -0.077000000
O    -1.418000000    -2.080000000     5.648000000
H    -1.931000000    -2.015000000     6.453000000
H    -2.032000000    -1.843000000     4.953000000
O     2.490000000     3.290000000     1.514000000
H     2.091000000     3.355000000     2.382000000
H     2.006000000     3.921000000     0.981000000
O     5.420000000     0.361000000    -2.317000000
H     5.192000000     0.772000000    -3.150000000
H     4.843000000    -0.400000000    -2.258000000
O     5.674000000     3.470000000    -1.886000000
H     5.863000000     2.891000000    -1.148000000
H     4.973000000     3.028000000    -2.365000000
O     3.748000000     0.718000000     4.737000000
H     2.821000000     0.942000000     4.659000000
H     4.105000000     0.865000000     3.861000000
O     0.433000000    -4.584000000     5.502000000
H    -0.051000000    -5.291000000     5.075000000
H    -0.245000000    -3.997000000     5.837000000
O     4.490000000     1.121000000     1.792000000
H     3.916000000     1.826000000     2.093000000
H     3.909000000     0.370000000     1.679000000
O     1.517000000     3.731000000     3.973000000
H     1.011000000     4.527000000     3.809000000
H     2.359000000     4.045000000     4.301000000
O    -3.844000000     3.247000000     0.034000000
H    -2.999000000     3.170000000    -0.408000000
H    -3.622000000     3.486000000     0.934000000
O     0.869000000    -2.603000000     3.351000000
H    -0.021000000    -2.252000000     3.361000000
H     0.922000000    -3.143000000     4.140000000
O     0.557000000    -0.473000000     6.853000000
H    -0.174000000    -0.944000000     6.453000000
H     0.511000000     0.406000000     6.475000000
O     0.833000000     1.367000000     4.762000000
H     0.979000000     2.254000000     4.433000000
H     0.038000000     1.074000000     4.317000000
O    -3.341000000     0.437000000     5.735000000
H    -2.481000000     0.565000000     5.335000000
H    -3.930000000     0.986000000     5.218000000
O    -2.827000000    -1.683000000    -3.048000000
H    -1.954000000    -1.542000000    -3.415000000
H    -2.997000000    -2.615000000    -3.184000000
O     5.130000000    -3.079000000    -3.995000000
H     5.849000000    -2.829000000    -4.575000000
H     5.244000000    -2.528000000    -3.221000000
O     2.612000000    -2.945000000    -6.953000000
H     3.540000000    -3.017000000    -7.177000000
H     2.498000000    -2.031000000    -6.695000000
O    -1.702000000     4.986000000     1.569000000
H    -2.530000000     5.409000000     1.340000000
H    -1.961000000     4.175000000     2.006000000
O    -5.596000000     1.462000000     1.370000000
H    -4.895000000     1.802000000     0.814000000
H    -6.401000000     1.778000000     0.961000000
O     1.828000000     0.089000000    -6.501000000
H     1.396000000     0.816000000    -6.053000000
H     2.759000000     0.312000000    -6.477000000
O    -3.177000000    -4.486000000    -2.709000000
H    -2.740000000    -5.251000000    -3.084000000
H    -3.004000000    -4.548000000    -1.769000000
O     1.750000000     3.844000000    -3.807000000
H     2.610000000     4.235000000    -3.652000000
H     1.132000000     4.457000000    -3.407000000
O    -1.980000000     2.434000000    -3.867000000
H    -2.424000000     1.594000000    -3.985000000
H    -2.545000000     3.068000000    -4.308000000
O     2.795000000    -3.944000000     1.407000000
H     2.239000000    -3.405000000     1.970000000
H     2.374000000    -3.906000000     0.548000000
O    -1.182000000    -4.881000000    -5.154000000
H    -0.741000000    -4.298000000    -4.536000000
H    -0.646000000    -4.840000000    -5.946000000
O    -4.947000000     2.462000000     4.627000000
H    -5.113000000     3.059000000     5.357000000
H    -5.771000000     1.989000000     4.511000000
O    -3.096000000     2.878000000     2.843000000
H    -3.826000000     2.799000000     3.457000000
H    -2.492000000     2.181000000     3.098000000
O    -3.872000000    -0.447000000    -0.720000000
H    -3.162000000     0.151000000    -0.486000000
H    -3.530000000    -0.946000000    -1.462000000
O    -5.780000000    -2.616000000     1.664000000
H    -4.876000000    -2.588000000     1.979000000
H    -5.805000000    -1.975000000     0.954000000
O     5.161000000     1.250000000    -5.136000000
H     6.079000000     1.484000000    -5.269000000
H     4.688000000     1.742000000    -5.807000000
O     0.149000000     2.248000000    -5.729000000
H    -0.523000000     2.177000000    -5.051000000
H     0.361000000     3.181000000    -5.759000000
O    -6.207000000    -1.449000000     5.217000000
H    -6.876000000    -0.874000000     4.847000000
H    -5.385000000    -1.138000000     4.837000000
O     1.039000000    -3.643000000    -3.782000000
H     0.593000000    -2.829000000    -4.014000000
H     1.967000000    -3.457000000    -3.922000000
O    -1.773000000    -5.797000000     2.594000000
H    -2.003000000    -4.868000000     2.579000000
H    -1.442000000    -5.976000000     1.714000000
O    -1.670000000     3.700000000    -1.374000000
H    -1.502000000     3.159000000    -2.146000000
H    -0.833000000     4.129000000    -1.196000000
O     4.283000000    -2.033000000    -1.475000000
H     4.466000000    -2.020000000    -0.535000000
H     3.884000000    -2.889000000    -1.629000000
O    -3.116000000    -3.254000000     2.546000000
H    -2.552000000    -2.506000000     2.742000000
H    -3.557000000    -3.445000000     3.373000000
O    -3.697000000     0.346000000    -4.286000000
H    -4.633000000     0.313000000    -4.087000000
H    -3.370000000    -0.521000000    -4.045000000
O     0.056000000     5.873000000     3.711000000
H    -0.524000000     5.876000000     2.950000000
H     0.602000000     6.651000000     3.599000000
O     3.336000000     2.873000000    -6.359000000
H     2.679000000     3.456000000    -6.739000000
H     3.259000000     3.008000000    -5.415000000
O     2.140000000    -4.332000000    -1.487000000
H     1.820000000    -5.228000000    -1.594000000
H     1.725000000    -3.844000000    -2.198000000
O    -0.407000000    -6.689000000    -0.460000000
H    -0.334000000    -7.628000000    -0.630000000
H    -0.569000000    -6.301000000    -1.320000000
O    -3.572000000    -4.548000000     0.074000000
H    -3.664000000    -3.995000000     0.850000000
H    -3.785000000    -5.429000000     0.381000000
O    -2.023000000     4.934000000     5.351000000
H    -2.216000000     4.556000000     4.493000000
H    -1.067000000     4.939000000     5.400000000
O     2.425000000    -0.485000000     2.343000000
H     2.003000000    -1.312000000     2.573000000
H     1.747000000     0.011000000     1.884000000
O    -0.708000000    -1.911000000    -5.045000000
H     0.030000000    -1.451000000    -5.444000000
H    -1.323000000    -2.049000000    -5.766000000
O    -4.605000000    -0.630000000     3.122000000
H    -5.106000000     0.052000000     2.673000000
H    -3.690000000    -0.389000000     2.976000000
