158
-3037.71225
C    -0.280000000    -1.055000000     0.975000000
H    -0.468000000    -1.930000000     1.593000000
C     0.144000000    -1.257000000    -0.340000000
H     0.134000000    -2.233000000    -0.818000000
C     0.318000000    -0.200000000    -1.190000000
H     0.545000000    -0.467000000    -2.306000000
C     0.129000000     1.064000000    -0.705000000
H     0.364000000     1.989000000    -1.226000000
C    -0.203000000     1.258000000     0.590000000
H    -0.423000000     2.277000000     0.898000000
C    -0.408000000     0.220000000     1.460000000
C    -0.705000000     0.600000000     2.964000000
O    -0.729000000    -0.285000000     3.812000000
O    -0.932000000     1.741000000     3.329000000
O     1.174000000    -0.889000000    -4.810000000
H     1.853000000    -0.593000000    -4.202000000
H     1.632000000    -1.473000000    -5.415000000
O     1.910000000     3.740000000     2.228000000
H     2.160000000     3.775000000     3.151000000
H     1.056000000     4.171000000     2.194000000
O    -1.634000000     2.147000000     6.070000000
H    -1.718000000     1.376000000     6.631000000
H    -1.244000000     1.814000000     5.262000000
O     1.901000000     6.117000000     4.012000000
H     1.436000000     6.858000000     4.401000000
H     1.209000000     5.504000000     3.765000000
O     2.104000000     0.544000000    -7.891000000
H     2.954000000     0.515000000    -7.453000000
H     1.466000000     0.455000000    -7.183000000
O     2.215000000    -4.945000000     2.172000000
H     1.676000000    -4.984000000     1.382000000
H     1.601000000    -4.719000000     2.870000000
O     3.803000000     3.008000000     0.507000000
H     3.697000000     2.123000000     0.160000000
H     3.114000000     3.092000000     1.166000000
O     0.840000000    -1.924000000     5.189000000
H     0.324000000    -1.350000000     4.623000000
H     0.420000000    -1.856000000     6.046000000
O    -3.894000000     3.655000000     5.119000000
H    -3.225000000     3.249000000     5.671000000
H    -3.716000000     3.319000000     4.241000000
O    -0.125000000     4.479000000     3.799000000
H    -0.309000000     3.569000000     3.566000000
H    -0.988000000     4.882000000     3.893000000
O    -4.659000000    -0.471000000     2.030000000
H    -5.460000000    -0.113000000     1.648000000
H    -4.796000000    -0.408000000     2.975000000
O    -2.978000000     0.972000000    -0.838000000
H    -2.142000000     0.654000000    -0.500000000
H    -3.312000000     0.250000000    -1.370000000
O     0.182000000     3.679000000     7.503000000
H    -0.279000000     4.511000000     7.401000000
H    -0.326000000     3.058000000     6.981000000
O    -2.469000000     5.372000000     1.146000000
H    -2.438000000     5.782000000     2.011000000
H    -2.416000000     4.433000000     1.325000000
O    -4.229000000    -1.234000000    -2.485000000
H    -3.447000000    -1.631000000    -2.868000000
H    -4.786000000    -1.977000000    -2.252000000
O    -0.517000000     6.832000000     0.179000000
H    -1.179000000     6.222000000     0.504000000
H    -0.372000000     6.567000000    -0.730000000
O     0.672000000    -4.903000000    -0.112000000
H    -0.224000000    -4.896000000     0.225000000
H     0.573000000    -5.061000000    -1.051000000
O     3.576000000    -2.523000000     4.683000000
H     2.792000000    -2.969000000     5.004000000
H     3.250000000    -1.706000000     4.306000000
O    -0.756000000    -4.744000000    -5.335000000
H    -0.995000000    -3.818000000    -5.343000000
H    -1.413000000    -5.167000000    -5.888000000
O    -3.077000000     2.886000000     2.381000000
H    -3.542000000     2.245000000     1.842000000
H    -2.387000000     2.381000000     2.812000000
O     2.168000000     2.917000000    -6.027000000
H     1.999000000     3.156000000    -6.939000000
H     2.951000000     2.368000000    -6.065000000
O    -4.205000000    -2.727000000     0.191000000
H    -5.143000000    -2.879000000     0.309000000
H    -4.013000000    -1.972000000     0.746000000
O    -0.898000000     5.990000000    -2.309000000
H    -0.043000000     5.953000000    -2.737000000
H    -1.310000000     6.777000000    -2.665000000
O     3.974000000     0.932000000    -5.605000000
H     4.926000000     0.992000000    -5.521000000
H     3.678000000     0.610000000    -4.753000000
O    -0.098000000    -5.779000000    -2.968000000
H    -0.451000000    -5.634000000    -3.846000000
H    -0.491000000    -6.605000000    -2.685000000
O     3.952000000    -0.831000000    -0.833000000
H     3.602000000    -1.707000000    -0.672000000
H     4.066000000    -0.454000000     0.040000000
O    -1.525000000    -2.078000000    -4.830000000
H    -1.393000000    -2.420000000    -3.946000000
H    -0.748000000    -1.545000000    -4.999000000
O    -4.203000000    -4.637000000     3.534000000
H    -3.662000000    -4.012000000     4.016000000
H    -3.579000000    -5.145000000     3.016000000
O    -2.260000000    -4.120000000     6.638000000
H    -2.314000000    -3.489000000     5.920000000
H    -2.484000000    -3.615000000     7.419000000
O     5.705000000     2.009000000    -3.336000000
H     4.784000000     1.781000000    -3.466000000
H     5.852000000     2.754000000    -3.918000000
O    -2.401000000     3.789000000    -3.046000000
H    -1.784000000     4.345000000    -2.570000000
H    -2.426000000     2.975000000    -2.544000000
O     2.676000000    -0.092000000     3.894000000
H     2.867000000     0.730000000     4.346000000
H     1.721000000    -0.156000000     3.907000000
O     0.142000000    -4.351000000     3.879000000
H    -0.795000000    -4.477000000     3.726000000
H     0.211000000    -3.457000000     4.215000000
O     0.953000000     4.840000000    -4.217000000
H     1.275000000     5.146000000    -5.065000000
H     1.678000000     4.330000000    -3.855000000
O     3.078000000     0.586000000    -3.012000000
H     2.618000000     1.358000000    -2.684000000
H     3.591000000     0.277000000    -2.264000000
O    -2.523000000    -2.195000000     4.653000000
H    -1.908000000    -1.534000000     4.334000000
H    -3.345000000    -1.719000000     4.774000000
O    -2.317000000     0.732000000    -6.400000000
H    -3.029000000     0.307000000    -5.921000000
H    -1.778000000     1.135000000    -5.719000000
O     3.263000000    -3.496000000    -0.402000000
H     2.416000000    -3.930000000    -0.297000000
H     3.447000000    -3.555000000    -1.340000000
O    -2.020000000    -3.221000000    -2.429000000
H    -1.529000000    -4.035000000    -2.547000000
H    -2.598000000    -3.397000000    -1.686000000
O     2.909000000     3.494000000    -2.678000000
H     3.701000000     3.894000000    -3.036000000
H     2.744000000     3.973000000    -1.866000000
O    -2.336000000    -4.944000000    -0.133000000
H    -2.990000000    -4.317000000     0.178000000
H    -2.317000000    -5.624000000     0.540000000
O     4.336000000    -0.431000000     1.822000000
H     5.037000000    -0.804000000     2.357000000
H     3.623000000    -0.269000000     2.441000000
O     2.508000000    -4.467000000    -3.388000000
H     2.738000000    -4.721000000    -4.281000000
H     1.560000000    -4.590000000    -3.340000000
O    -0.510000000     2.375000000    -5.004000000
H     0.434000000     2.247000000    -5.099000000
H    -0.594000000     3.046000000    -4.327000000
O    -2.058000000    -5.895000000     2.645000000
H    -1.406000000    -6.414000000     2.175000000
H    -1.947000000    -6.145000000     3.562000000
O     5.756000000    -1.479000000    -2.684000000
H     5.125000000    -1.592000000    -1.973000000
H     5.920000000    -0.537000000    -2.711000000
O    -5.395000000     2.413000000    -0.695000000
H    -4.581000000     2.004000000    -0.398000000
H    -5.128000000     2.985000000    -1.414000000
O    -2.389000000     0.165000000     7.625000000
H    -3.303000000    -0.116000000     7.668000000
H    -1.890000000    -0.595000000     7.922000000
