158
-3020.21244
C     0.273000000    -1.231000000     0.852000000
H     0.338000000    -2.174000000     1.387000000
C     0.338000000    -1.137000000    -0.545000000
H     0.717000000    -2.056000000    -0.983000000
C     0.099000000    -0.001000000    -1.259000000
H     0.202000000    -0.078000000    -2.358000000
C    -0.085000000     1.194000000    -0.486000000
H    -0.156000000     2.160000000    -0.980000000
C    -0.296000000     1.166000000     0.866000000
H    -0.541000000     2.011000000     1.505000000
C    -0.092000000    -0.067000000     1.557000000
C    -0.360000000    -0.063000000     3.036000000
O    -0.294000000    -1.093000000     3.665000000
O    -0.707000000     0.898000000     3.662000000
O    -1.645000000     4.602000000     0.570000000
H    -0.777000000     4.757000000     0.943000000
H    -2.214000000     4.480000000     1.330000000
O    -1.766000000    -3.538000000    -5.704000000
H    -2.584000000    -4.004000000    -5.880000000
H    -1.293000000    -3.563000000    -6.535000000
O     1.036000000     3.914000000     1.042000000
H     1.413000000     3.844000000     1.919000000
H     1.259000000     4.799000000     0.755000000
O    -0.943000000    -3.539000000     7.841000000
H    -1.160000000    -4.262000000     7.254000000
H    -0.630000000    -2.845000000     7.261000000
O     1.445000000     6.392000000     0.375000000
H     1.386000000     6.248000000    -0.570000000
H     1.525000000     7.341000000     0.468000000
O    -3.579000000     1.671000000    -5.103000000
H    -3.781000000     2.501000000    -5.536000000
H    -2.915000000     1.896000000    -4.452000000
O     5.022000000    -0.274000000    -5.968000000
H     4.468000000     0.386000000    -6.384000000
H     4.406000000    -0.907000000    -5.599000000
O    -1.741000000     3.062000000     4.642000000
H    -1.497000000     2.321000000     4.087000000
H    -0.983000000     3.196000000     5.210000000
O    -3.469000000     0.654000000     4.423000000
H    -3.593000000     1.092000000     3.581000000
H    -2.538000000     0.434000000     4.444000000
O     2.381000000    -0.730000000     3.652000000
H     2.714000000     0.129000000     3.913000000
H     1.454000000    -0.709000000     3.888000000
O     2.874000000     0.838000000     7.600000000
H     3.120000000     1.676000000     7.991000000
H     2.418000000     1.075000000     6.792000000
O     0.232000000    -1.222000000     6.167000000
H    -0.181000000    -1.295000000     5.306000000
H     0.570000000    -0.327000000     6.195000000
O    -1.272000000    -3.945000000    -2.978000000
H    -1.668000000    -3.121000000    -2.692000000
H    -1.455000000    -3.986000000    -3.916000000
O    -1.649000000     4.538000000    -2.258000000
H    -1.605000000     4.517000000    -1.302000000
H    -1.476000000     5.452000000    -2.485000000
O     0.798000000     1.314000000     5.751000000
H     0.274000000     1.197000000     4.958000000
H     0.870000000     2.263000000     5.852000000
O    -1.360000000    -4.224000000     0.325000000
H    -0.481000000    -4.380000000     0.668000000
H    -1.383000000    -4.702000000    -0.504000000
O     4.237000000     3.166000000    -3.061000000
H     4.937000000     3.018000000    -3.697000000
H     4.619000000     3.766000000    -2.420000000
O     1.153000000    -5.164000000     1.046000000
H     1.082000000    -5.201000000     2.000000000
H     1.543000000    -6.003000000     0.803000000
O    -1.536000000     0.128000000    -7.224000000
H    -2.104000000     0.879000000    -7.051000000
H    -1.543000000    -0.371000000    -6.407000000
O     3.848000000    -3.095000000     3.425000000
H     3.550000000    -3.101000000     2.515000000
H     3.274000000    -2.465000000     3.861000000
O    -1.378000000    -1.073000000    -4.820000000
H    -1.709000000    -1.970000000    -4.859000000
H    -2.003000000    -0.611000000    -4.260000000
O    -2.791000000    -1.754000000    -2.094000000
H    -3.009000000    -0.846000000    -1.881000000
H    -2.591000000    -2.157000000    -1.248000000
O    -1.952000000    -5.263000000     4.245000000
H    -2.570000000    -5.635000000     3.615000000
H    -2.144000000    -4.325000000     4.242000000
O     1.590000000    -1.103000000    -4.487000000
H     0.907000000    -1.063000000    -5.157000000
H     1.805000000    -0.188000000    -4.309000000
O     2.151000000     3.804000000     3.516000000
H     2.556000000     4.623000000     3.802000000
H     1.600000000     3.539000000     4.252000000
O     0.672000000    -4.061000000    -7.000000000
H     0.505000000    -3.815000000    -6.090000000
H     0.825000000    -5.006000000    -6.968000000
O     2.830000000    -2.887000000     6.630000000
H     2.112000000    -2.367000000     6.270000000
H     3.314000000    -2.276000000     7.186000000
O     3.171000000    -3.115000000     0.822000000
H     2.984000000    -2.492000000     0.120000000
H     2.490000000    -3.783000000     0.737000000
O    -1.461000000     2.440000000    -3.939000000
H    -0.821000000     2.575000000    -4.638000000
H    -1.265000000     3.125000000    -3.299000000
O     0.664000000     3.229000000    -5.497000000
H     0.921000000     2.742000000    -6.280000000
H     1.025000000     4.105000000    -5.631000000
O    -3.687000000     1.141000000     1.709000000
H    -3.429000000     0.884000000     0.824000000
H    -3.887000000     2.074000000     1.639000000
O    -2.801000000     0.813000000    -0.921000000
H    -1.873000000     0.645000000    -1.080000000
H    -2.940000000     1.707000000    -1.234000000
O     0.247000000     3.866000000     6.443000000
H     0.457000000     4.783000000     6.263000000
H     0.704000000     3.672000000     7.261000000
O    -3.026000000    -2.302000000     0.728000000
H    -3.840000000    -2.780000000     0.570000000
H    -2.336000000    -2.911000000     0.467000000
O     2.808000000    -3.287000000    -3.526000000
H     2.234000000    -2.674000000    -3.985000000
H     3.230000000    -2.758000000    -2.848000000
O     3.354000000     0.895000000     0.804000000
H     2.439000000     1.168000000     0.750000000
H     3.333000000     0.082000000     1.309000000
O    -4.496000000    -2.212000000     5.876000000
H    -3.807000000    -2.173000000     5.213000000
H    -5.215000000    -1.702000000     5.505000000
O     1.841000000     4.421000000    -1.840000000
H     2.391000000     3.987000000    -2.493000000
H     1.404000000     3.704000000    -1.381000000
O     0.761000000    -5.815000000     3.748000000
H    -0.174000000    -5.654000000     3.876000000
H     1.117000000    -5.877000000     4.634000000
O     3.697000000     1.777000000     4.150000000
H     4.590000000     2.000000000     3.889000000
H     3.153000000     2.454000000     3.745000000
O    -4.818000000     3.238000000     5.736000000
H    -4.594000000     4.166000000     5.810000000
H    -4.125000000     2.867000000     5.190000000
O    -1.705000000     2.334000000     8.073000000
H    -2.637000000     2.143000000     8.180000000
H    -1.315000000     1.495000000     7.831000000
O     3.258000000    -1.447000000    -1.619000000
H     3.874000000    -0.715000000    -1.637000000
H     2.403000000    -1.045000000    -1.774000000
O     1.374000000    -5.496000000    -2.367000000
H     0.485000000    -5.151000000    -2.275000000
H     1.892000000    -4.746000000    -2.661000000
O     2.019000000     1.796000000    -3.676000000
H     1.519000000     2.346000000    -4.279000000
H     2.800000000     2.310000000    -3.473000000
O    -4.198000000     4.409000000    -2.638000000
H    -3.243000000     4.469000000    -2.678000000
H    -4.446000000     5.011000000    -1.937000000
O    -2.449000000    -2.568000000     3.600000000
H    -1.599000000    -2.139000000     3.696000000
H    -2.590000000    -2.611000000     2.654000000
O    -3.337000000     3.879000000     2.590000000
H    -2.640000000     3.676000000     3.215000000
H    -3.804000000     4.615000000     2.985000000
