158
-3045.93513
C     1.326000000    -0.006000000     0.715000000
H     2.264000000    -0.141000000     1.249000000
C     0.957000000    -0.932000000    -0.318000000
H     1.569000000    -1.785000000    -0.601000000
C    -0.291000000    -0.784000000    -0.904000000
H    -0.623000000    -1.379000000    -1.761000000
C    -1.176000000     0.238000000    -0.594000000
H    -2.132000000     0.369000000    -1.093000000
C    -0.758000000     1.215000000     0.335000000
H    -1.486000000     2.000000000     0.524000000
C     0.406000000     1.039000000     1.111000000
C     0.799000000     2.086000000     2.152000000
O    -0.004000000     2.979000000     2.444000000
O     1.900000000     1.897000000     2.641000000
O     3.115000000    -6.332000000     1.187000000
H     3.105000000    -5.390000000     1.017000000
H     4.040000000    -6.545000000     1.306000000
O    -0.689000000     7.371000000     1.859000000
H     0.232000000     7.172000000     2.028000000
H    -1.099000000     6.515000000     1.734000000
O     5.515000000     3.707000000     2.548000000
H     5.096000000     4.353000000     3.116000000
H     4.952000000     2.935000000     2.606000000
O    -5.346000000    -0.793000000    -0.604000000
H    -5.132000000    -0.287000000    -1.387000000
H    -4.770000000    -1.557000000    -0.648000000
O     1.878000000     3.568000000     4.902000000
H     0.937000000     3.559000000     5.074000000
H     1.956000000     3.315000000     3.982000000
O     3.765000000    -1.492000000    -2.672000000
H     4.461000000    -1.821000000    -3.241000000
H     4.209000000    -1.274000000    -1.853000000
O    -3.223000000    -3.858000000    -3.517000000
H    -2.408000000    -3.684000000    -3.989000000
H    -3.101000000    -4.730000000    -3.141000000
O    -0.605000000     3.477000000    -3.913000000
H    -0.197000000     4.145000000    -4.464000000
H     0.102000000     2.862000000    -3.718000000
O    -3.275000000     2.178000000     6.119000000
H    -2.663000000     1.449000000     6.208000000
H    -3.213000000     2.432000000     5.198000000
O     1.093000000    -3.587000000     3.048000000
H     0.355000000    -4.197000000     3.041000000
H     0.742000000    -2.792000000     3.451000000
O     2.235000000    -4.291000000    -1.594000000
H     2.563000000    -4.077000000    -0.721000000
H     2.626000000    -3.631000000    -2.166000000
O     0.432000000    -1.341000000     4.712000000
H     1.059000000    -0.626000000     4.825000000
H     0.423000000    -1.787000000     5.559000000
O    -6.104000000     3.179000000     0.755000000
H    -6.223000000     3.001000000    -0.179000000
H    -5.515000000     3.933000000     0.782000000
O     2.935000000    -3.657000000     0.866000000
H     3.562000000    -2.960000000     1.059000000
H     2.332000000    -3.651000000     1.610000000
O     5.780000000    -2.753000000     0.465000000
H     5.444000000    -2.968000000    -0.406000000
H     6.605000000    -3.234000000     0.529000000
O    -0.716000000    -4.002000000    -1.151000000
H    -0.571000000    -4.440000000    -1.989000000
H     0.085000000    -4.164000000    -0.653000000
O    -4.664000000    -3.735000000     2.003000000
H    -4.350000000    -4.083000000     1.168000000
H    -4.231000000    -2.886000000     2.087000000
O     4.933000000     4.440000000    -1.038000000
H     4.549000000     3.838000000    -0.401000000
H     4.280000000     5.132000000    -1.139000000
O    -1.623000000     4.797000000     1.618000000
H    -1.494000000     4.692000000     0.676000000
H    -0.963000000     4.229000000     2.016000000
O     6.847000000     0.680000000     2.071000000
H     6.731000000    -0.266000000     2.160000000
H     6.008000000     1.051000000     2.346000000
O    -2.187000000     0.297000000     4.412000000
H    -2.338000000    -0.037000000     3.527000000
H    -1.359000000    -0.102000000     4.680000000
O    -3.174000000     4.289000000     4.034000000
H    -4.119000000     4.152000000     3.963000000
H    -2.859000000     4.255000000     3.131000000
O     1.374000000     2.384000000    -1.986000000
H     2.020000000     2.151000000    -1.320000000
H     0.529000000     2.200000000    -1.575000000
O    -2.829000000    -0.578000000    -4.960000000
H    -2.255000000     0.074000000    -5.364000000
H    -2.239000000    -1.284000000    -4.696000000
O     6.328000000    -1.899000000     3.054000000
H     5.902000000    -2.375000000     2.341000000
H     5.664000000    -1.855000000     3.742000000
O     1.111000000     5.776000000    -0.999000000
H     0.262000000     5.645000000    -1.423000000
H     1.642000000     5.035000000    -1.294000000
O     3.481000000    -1.486000000     3.673000000
H     3.117000000    -1.948000000     4.428000000
H     3.214000000    -0.575000000     3.800000000
O    -2.047000000     4.234000000    -1.057000000
H    -1.977000000     3.734000000    -1.870000000
H    -2.841000000     4.758000000    -1.165000000
O     0.004000000    -6.975000000    -3.530000000
H    -0.491000000    -7.118000000    -2.724000000
H     0.919000000    -7.088000000    -3.273000000
O    -2.825000000    -6.442000000    -2.811000000
H    -3.578000000    -7.010000000    -2.647000000
H    -2.257000000    -6.573000000    -2.053000000
O     1.319000000     5.439000000     2.769000000
H     0.997000000     5.816000000     3.588000000
H     0.777000000     4.662000000     2.634000000
O     4.527000000     1.313000000     3.140000000
H     4.485000000     1.175000000     4.086000000
H     3.614000000     1.402000000     2.870000000
O    -3.765000000    -0.159000000     1.733000000
H    -4.061000000     0.550000000     2.304000000
H    -4.438000000    -0.216000000     1.055000000
O     3.228000000     1.163000000     5.281000000
H     2.701000000     0.688000000     5.923000000
H     2.812000000     2.023000000     5.219000000
O    -3.538000000    -3.125000000    -0.529000000
H    -3.641000000    -3.365000000    -1.450000000
H    -2.623000000    -3.324000000    -0.330000000
O    -1.720000000    -4.394000000     3.376000000
H    -2.550000000    -4.229000000     3.824000000
H    -1.562000000    -3.599000000     2.866000000
O    -1.750000000    -2.079000000     1.749000000
H    -0.996000000    -1.882000000     1.193000000
H    -2.355000000    -1.352000000     1.599000000
O     3.857000000     6.197000000     2.212000000
H     3.912000000     6.362000000     1.271000000
H     2.933000000     6.000000000     2.367000000
O     5.084000000     0.262000000    -0.216000000
H     5.367000000    -0.071000000     0.636000000
H     5.898000000     0.482000000    -0.670000000
O     3.221000000     2.425000000     0.349000000
H     3.810000000     1.671000000     0.348000000
H     2.809000000     2.405000000     1.213000000
O    -5.314000000     1.736000000     2.965000000
H    -5.718000000     2.144000000     3.731000000
H    -5.750000000     2.147000000     2.218000000
O    -0.837000000    -3.153000000    -4.587000000
H    -0.653000000    -3.865000000    -5.199000000
H    -0.030000000    -3.056000000    -4.081000000
O     0.715000000     6.278000000     5.288000000
H     0.461000000     7.200000000     5.338000000
H     0.013000000     5.811000000     5.740000000
O    -5.357000000     0.095000000    -3.714000000
H    -5.502000000    -0.836000000    -3.546000000
H    -4.440000000     0.149000000    -3.985000000
O    -4.641000000     6.010000000     1.025000000
H    -4.615000000     6.334000000     0.125000000
H    -3.743000000     5.732000000     1.206000000
O    -5.528000000    -2.583000000    -3.659000000
H    -5.830000000    -2.632000000    -4.566000000
H    -4.745000000    -3.133000000    -3.638000000
O    -0.556000000     3.616000000     5.594000000
H    -0.658000000     2.753000000     5.996000000
H    -0.865000000     3.500000000     4.696000000
O     2.722000000     0.715000000    -3.872000000
H     2.175000000     1.317000000    -3.368000000
H     2.671000000    -0.112000000    -3.393000000
