158
-3033.96440
C     0.992000000    -0.979000000     0.465000000
H     1.589000000    -1.828000000     0.788000000
C     0.151000000    -1.120000000    -0.647000000
H     0.195000000    -2.018000000    -1.259000000
C    -0.767000000    -0.129000000    -0.908000000
H    -1.398000000    -0.204000000    -1.798000000
C    -0.806000000     1.045000000    -0.187000000
H    -1.496000000     1.815000000    -0.522000000
C     0.109000000     1.259000000     0.881000000
H     0.084000000     2.199000000     1.426000000
C     0.967000000     0.215000000     1.234000000
C     1.811000000     0.300000000     2.445000000
O     2.473000000    -0.662000000     2.805000000
O     1.707000000     1.236000000     3.187000000
O    -5.433000000     2.033000000    -5.819000000
H    -5.080000000     2.918000000    -5.727000000
H    -5.314000000     1.637000000    -4.956000000
O     3.641000000    -3.332000000     0.745000000
H     3.577000000    -3.511000000     1.683000000
H     4.191000000    -2.550000000     0.688000000
O     3.293000000     2.386000000    -1.043000000
H     2.800000000     1.612000000    -1.316000000
H     4.162000000     2.265000000    -1.426000000
O     5.203000000    -2.267000000     5.858000000
H     4.933000000    -3.134000000     6.161000000
H     5.930000000    -2.027000000     6.433000000
O    -5.304000000     5.000000000    -2.254000000
H    -4.354000000     4.877000000    -2.232000000
H    -5.658000000     4.193000000    -1.880000000
O    -3.437000000     1.808000000     3.991000000
H    -2.925000000     2.578000000     3.745000000
H    -2.800000000     1.212000000     4.385000000
O     1.677000000    -5.259000000     2.075000000
H     1.288000000    -4.395000000     2.215000000
H     2.343000000    -5.115000000     1.402000000
O    -0.330000000    -4.749000000    -4.551000000
H     0.437000000    -4.194000000    -4.686000000
H    -0.013000000    -5.469000000    -4.007000000
O     3.134000000     5.561000000     5.461000000
H     3.288000000     6.117000000     4.698000000
H     2.349000000     5.060000000     5.238000000
O     4.212000000     0.277000000     4.892000000
H     3.414000000     0.053000000     4.414000000
H     4.621000000    -0.568000000     5.083000000
O     4.513000000     2.652000000     3.041000000
H     3.809000000     3.006000000     2.498000000
H     4.096000000     1.957000000     3.551000000
O     0.970000000     5.779000000    -0.021000000
H     1.315000000     6.017000000    -0.882000000
H     0.498000000     6.558000000     0.271000000
O     3.797000000    -3.132000000     3.396000000
H     3.458000000    -2.237000000     3.379000000
H     3.939000000    -3.318000000     4.324000000
O    -7.465000000     0.849000000    -2.010000000
H    -6.861000000     0.504000000    -2.668000000
H    -6.959000000     1.516000000    -1.546000000
O    -5.894000000     2.308000000    -0.391000000
H    -5.133000000     1.755000000    -0.210000000
H    -5.998000000     2.837000000     0.400000000
O    -3.184000000     5.892000000     0.795000000
H    -3.348000000     5.472000000    -0.049000000
H    -2.389000000     6.407000000     0.655000000
O    -2.484000000     4.541000000    -2.040000000
H    -2.217000000     5.236000000    -2.642000000
H    -1.723000000     3.963000000    -1.988000000
O    -1.117000000     0.528000000     3.771000000
H    -1.281000000     0.933000000     2.920000000
H    -0.221000000     0.785000000     3.990000000
O     5.281000000    -0.745000000     1.871000000
H     4.464000000    -0.640000000     2.358000000
H     5.773000000     0.055000000     2.054000000
O    -4.406000000     1.182000000    -3.207000000
H    -4.569000000     0.240000000    -3.232000000
H    -4.673000000     1.449000000    -2.327000000
O     2.304000000     3.895000000     1.363000000
H     1.859000000     4.487000000     0.757000000
H     2.931000000     3.420000000     0.817000000
O     1.659000000     1.514000000     6.001000000
H     1.335000000     1.232000000     5.145000000
H     1.934000000     0.704000000     6.431000000
O    -2.040000000     1.873000000    -4.397000000
H    -2.824000000     1.480000000    -4.013000000
H    -2.330000000     2.729000000    -4.712000000
O     2.859000000     3.593000000    -3.626000000
H     2.009000000     3.399000000    -3.231000000
H     3.265000000     2.736000000    -3.754000000
O    -4.453000000    -5.449000000    -4.054000000
H    -3.687000000    -4.885000000    -3.950000000
H    -4.091000000    -6.333000000    -4.125000000
O     6.694000000    -3.622000000     2.729000000
H     7.310000000    -2.895000000     2.633000000
H     5.846000000    -3.252000000     2.483000000
O    -0.169000000    -3.076000000     5.805000000
H    -0.737000000    -2.386000000     6.148000000
H    -0.110000000    -3.713000000     6.516000000
O     6.520000000     1.654000000     1.666000000
H     7.243000000     2.255000000     1.845000000
H     5.772000000     2.034000000     2.126000000
O    -1.471000000     0.131000000    -6.810000000
H    -2.189000000     0.647000000    -7.177000000
H    -1.180000000     0.633000000    -6.049000000
O    -0.192000000    -0.508000000     7.263000000
H    -0.496000000    -0.617000000     8.164000000
H    -0.845000000     0.061000000     6.856000000
O     0.775000000    -2.973000000     3.091000000
H     1.526000000    -2.380000000     3.050000000
H     0.494000000    -2.942000000     4.005000000
O     3.468000000    -3.658000000    -4.556000000
H     3.500000000    -3.191000000    -3.722000000
H     3.104000000    -4.516000000    -4.338000000
O     3.548000000    -2.805000000    -1.884000000
H     3.027000000    -2.690000000    -1.089000000
H     4.374000000    -2.359000000    -1.696000000
O     1.334000000    -6.323000000    -0.856000000
H     0.745000000    -5.574000000    -0.942000000
H     0.923000000    -6.877000000    -0.193000000
O     0.855000000     4.563000000     3.566000000
H     0.410000000     3.776000000     3.878000000
H     1.456000000     4.247000000     2.891000000
O    -0.512000000    -4.201000000    -1.046000000
H    -1.318000000    -4.676000000    -1.250000000
H    -0.669000000    -3.824000000    -0.180000000
O    -3.316000000    -1.982000000    -6.198000000
H    -4.032000000    -1.791000000    -6.803000000
H    -2.637000000    -1.345000000    -6.421000000
O    -1.613000000    -3.512000000     1.490000000
H    -1.115000000    -2.726000000     1.714000000
H    -2.053000000    -3.757000000     2.305000000
O     2.065000000    -2.416000000     7.469000000
H     1.403000000    -2.568000000     6.795000000
H     1.623000000    -1.871000000     8.120000000
O     1.552000000     3.756000000     7.640000000
H     1.872000000     3.436000000     8.483000000
H     1.710000000     3.032000000     7.034000000
O    -2.619000000    -3.499000000    -4.051000000
H    -1.741000000    -3.865000000    -4.158000000
H    -2.680000000    -2.822000000    -4.725000000
O     2.196000000     0.123000000    -2.660000000
H     2.924000000     0.172000000    -3.280000000
H     2.116000000    -0.810000000    -2.459000000
O    -4.512000000    -2.163000000    -2.552000000
H    -4.020000000    -2.765000000    -3.111000000
H    -4.264000000    -2.408000000    -1.660000000
O    -3.759000000    -2.708000000    -0.011000000
H    -4.173000000    -2.446000000     0.811000000
H    -2.940000000    -3.126000000     0.256000000
O     5.374000000    -1.222000000    -0.737000000
H     5.313000000    -1.116000000     0.213000000
H     6.304000000    -1.378000000    -0.901000000
O     5.113000000     2.880000000     6.020000000
H     4.385000000     3.369000000     5.635000000
H     4.907000000     1.963000000     5.841000000
O    -0.050000000     3.019000000    -2.889000000
H     0.203000000     2.202000000    -2.458000000
H    -0.645000000     2.746000000    -3.587000000
O    -3.764000000     0.448000000    -0.423000000
H    -4.095000000    -0.257000000     0.134000000
H    -2.864000000     0.190000000    -0.625000000
