158
-3016.62965
C    -0.674000000    -1.031000000     0.825000000
H    -1.232000000    -1.871000000     1.231000000
C    -0.704000000    -0.896000000    -0.566000000
H    -1.306000000    -1.601000000    -1.134000000
C     0.042000000     0.035000000    -1.232000000
H    -0.148000000     0.117000000    -2.323000000
C     0.810000000     0.991000000    -0.524000000
H     1.128000000     1.888000000    -1.049000000
C     0.720000000     0.897000000     0.877000000
H     1.211000000     1.648000000     1.491000000
C     0.067000000    -0.134000000     1.576000000
C     0.017000000    -0.219000000     3.034000000
O    -0.338000000    -1.233000000     3.670000000
O     0.631000000     0.570000000     3.682000000
O    -2.474000000     1.997000000    -0.094000000
H    -2.988000000     1.944000000     0.711000000
H    -1.798000000     1.327000000     0.008000000
O     2.245000000     6.329000000     0.719000000
H     2.284000000     7.175000000     1.166000000
H     1.409000000     6.343000000     0.253000000
O    -1.168000000     4.689000000     1.919000000
H    -1.958000000     4.727000000     2.458000000
H    -0.808000000     5.575000000     1.959000000
O    -2.393000000    -4.130000000     7.340000000
H    -2.670000000    -5.028000000     7.160000000
H    -1.801000000    -3.913000000     6.620000000
O     2.389000000    -1.680000000     4.245000000
H     1.579000000    -1.188000000     4.112000000
H     2.814000000    -1.245000000     4.985000000
O     1.008000000     4.266000000     3.571000000
H     0.180000000     4.188000000     3.097000000
H     1.301000000     3.363000000     3.692000000
O    -5.520000000     0.005000000    -4.283000000
H    -4.643000000     0.349000000    -4.115000000
H    -5.727000000    -0.514000000    -3.506000000
O    -4.043000000    -2.585000000     0.353000000
H    -4.567000000    -3.272000000     0.765000000
H    -4.657000000    -1.863000000     0.220000000
O     5.663000000    -0.251000000     1.412000000
H     5.219000000    -0.126000000     0.574000000
H     5.921000000     0.631000000     1.681000000
O    -3.920000000     2.193000000     2.264000000
H    -4.056000000     3.123000000     2.445000000
H    -3.374000000     1.885000000     2.988000000
O    -4.564000000    -5.075000000    -3.721000000
H    -3.757000000    -4.730000000    -3.338000000
H    -5.258000000    -4.752000000    -3.147000000
O    -1.611000000     4.705000000    -0.728000000
H    -1.444000000     4.583000000     0.207000000
H    -2.018000000     3.884000000    -1.007000000
O    -1.415000000    -3.183000000     5.025000000
H    -0.963000000    -2.441000000     4.624000000
H    -2.321000000    -3.102000000     4.727000000
O    -3.251000000     2.420000000    -2.799000000
H    -2.687000000     1.883000000    -3.356000000
H    -3.154000000     2.042000000    -1.925000000
O     3.019000000    -4.593000000     4.772000000
H     2.896000000    -3.673000000     4.536000000
H     2.136000000    -4.911000000     4.963000000
O    -0.020000000     6.748000000    -0.569000000
H    -0.664000000     6.119000000    -0.894000000
H     0.121000000     7.348000000    -1.301000000
O     0.496000000    -5.147000000     6.102000000
H    -0.209000000    -4.546000000     5.859000000
H     1.000000000    -4.671000000     6.762000000
O    -3.666000000    -2.289000000    -5.097000000
H    -4.446000000    -2.553000000    -4.609000000
H    -3.558000000    -1.360000000    -4.892000000
O    -1.547000000     4.624000000    -4.565000000
H    -1.379000000     5.319000000    -5.201000000
H    -2.110000000     4.005000000    -5.029000000
O     3.311000000     4.824000000    -3.484000000
H     2.420000000     4.584000000    -3.228000000
H     3.721000000     3.995000000    -3.731000000
O    -5.270000000     3.087000000    -4.660000000
H    -4.876000000     2.736000000    -5.459000000
H    -4.725000000     2.742000000    -3.953000000
O    -2.379000000     0.480000000    -4.569000000
H    -2.281000000     1.231000000    -5.154000000
H    -1.539000000     0.023000000    -4.624000000
O     3.376000000    -0.199000000    -0.858000000
H     2.439000000    -0.011000000    -0.800000000
H     3.581000000    -0.109000000    -1.789000000
O     5.240000000     2.130000000     2.923000000
H     5.668000000     2.629000000     3.618000000
H     4.467000000     1.751000000     3.341000000
O    -2.791000000     3.038000000    -6.535000000
H    -3.051000000     3.347000000    -7.403000000
H    -2.026000000     2.485000000    -6.697000000
O    -1.746000000     1.753000000     8.102000000
H    -2.471000000     1.156000000     8.285000000
H    -1.555000000     1.620000000     7.174000000
O     3.536000000     2.712000000    -5.929000000
H     4.433000000     2.511000000    -5.662000000
H     3.631000000     3.170000000    -6.765000000
O     2.025000000    -3.927000000    -1.478000000
H     2.843000000    -3.598000000    -1.851000000
H     2.043000000    -3.636000000    -0.566000000
O     0.737000000    -3.501000000     2.546000000
H     1.689000000    -3.572000000     2.477000000
H     0.592000000    -2.708000000     3.063000000
O     0.611000000     2.553000000    -5.104000000
H     1.465000000     2.831000000    -5.434000000
H     0.349000000     3.248000000    -4.501000000
O     3.039000000     1.651000000     4.241000000
H     3.264000000     1.264000000     5.088000000
H     2.329000000     1.103000000     3.909000000
O    -1.036000000    -6.332000000    -0.309000000
H    -0.850000000    -6.016000000     0.576000000
H    -0.195000000    -6.283000000    -0.762000000
O    -1.736000000    -4.610000000    -5.843000000
H    -1.173000000    -4.330000000    -5.121000000
H    -2.174000000    -3.809000000    -6.131000000
O    -1.570000000    -5.513000000     2.498000000
H    -1.930000000    -5.557000000     3.383000000
H    -0.966000000    -4.771000000     2.521000000
O     1.486000000     1.639000000     6.738000000
H     1.650000000     0.697000000     6.689000000
H     0.982000000     1.835000000     5.948000000
O     2.296000000    -0.999000000    -5.988000000
H     3.207000000    -1.270000000    -5.870000000
H     2.294000000    -0.524000000    -6.820000000
O    -1.912000000    -0.071000000     5.886000000
H    -1.386000000    -0.625000000     5.309000000
H    -2.706000000    -0.580000000     6.048000000
O    -0.335000000    -3.525000000    -3.576000000
H    -1.158000000    -3.767000000    -3.150000000
H     0.340000000    -3.968000000    -3.063000000
O     3.314000000     0.292000000    -3.524000000
H     2.767000000     0.990000000    -3.885000000
H     3.032000000    -0.496000000    -3.988000000
O    -3.581000000    -1.843000000     3.498000000
H    -4.345000000    -2.265000000     3.892000000
H    -3.837000000    -1.684000000     2.590000000
O     3.837000000    -0.518000000     6.320000000
H     4.619000000    -0.014000000     6.547000000
H     4.043000000    -1.414000000     6.588000000
O    -1.011000000     2.450000000     4.663000000
H    -0.412000000     1.729000000     4.467000000
H    -1.846000000     2.023000000     4.853000000
O     3.299000000    -2.978000000     0.777000000
H     3.067000000    -2.080000000     0.544000000
H     4.234000000    -3.044000000     0.579000000
O    -0.115000000    -1.016000000    -4.981000000
H     0.778000000    -0.831000000    -5.273000000
H    -0.065000000    -1.893000000    -4.599000000
O    -0.413000000     5.110000000     6.409000000
H    -0.270000000     4.424000000     5.757000000
H    -1.086000000     5.671000000     6.022000000
O    -0.819000000     1.233000000    -6.841000000
H    -0.050000000     1.549000000    -6.366000000
H    -0.766000000     0.279000000    -6.775000000
O     0.436000000     4.332000000    -2.789000000
H     0.086000000     4.322000000    -1.898000000
H    -0.323000000     4.514000000    -3.342000000
O    -2.613000000    -4.079000000    -1.991000000
H    -2.470000000    -4.681000000    -1.260000000
H    -3.272000000    -3.464000000    -1.669000000
