158
-3045.14430
C    -0.871000000    -0.736000000     0.972000000
H    -1.443000000    -1.462000000     1.544000000
C    -0.894000000    -0.958000000    -0.379000000
H    -1.514000000    -1.668000000    -0.921000000
C    -0.191000000    -0.021000000    -1.181000000
H    -0.202000000    -0.186000000    -2.229000000
C     0.640000000     0.860000000    -0.602000000
H     1.177000000     1.508000000    -1.290000000
C     0.726000000     1.018000000     0.771000000
H     1.356000000     1.832000000     1.119000000
C    -0.088000000     0.268000000     1.568000000
C     0.154000000     0.263000000     3.092000000
O    -0.411000000    -0.646000000     3.605000000
O     0.823000000     1.085000000     3.673000000
O     1.192000000    -2.394000000    -5.809000000
H     1.545000000    -2.415000000    -4.920000000
H     1.713000000    -1.728000000    -6.258000000
O     4.741000000     4.509000000     1.521000000
H     4.072000000     4.397000000     0.846000000
H     4.353000000     4.126000000     2.308000000
O     5.124000000    -1.590000000    -2.545000000
H     5.868000000    -1.643000000    -3.144000000
H     4.864000000    -0.669000000    -2.567000000
O     0.518000000     2.770000000     5.909000000
H    -0.361000000     3.029000000     5.635000000
H     0.823000000     2.185000000     5.216000000
O     3.538000000     3.528000000     6.006000000
H     4.488000000     3.447000000     6.094000000
H     3.186000000     3.009000000     6.729000000
O     4.638000000     2.680000000    -1.523000000
H     4.280000000     3.566000000    -1.569000000
H     3.868000000     2.111000000    -1.509000000
O    -0.121000000    -0.658000000     6.292000000
H    -0.173000000    -0.740000000     5.340000000
H     0.797000000    -0.451000000     6.465000000
O     3.190000000     3.191000000     3.364000000
H     3.517000000     2.300000000     3.492000000
H     3.056000000     3.527000000     4.250000000
O    -3.459000000    -3.353000000     2.332000000
H    -3.964000000    -2.885000000     1.667000000
H    -4.097000000    -3.557000000     3.017000000
O    -0.802000000     3.880000000     0.772000000
H    -1.421000000     3.156000000     0.869000000
H    -0.219000000     3.799000000     1.527000000
O     2.056000000     2.345000000     8.264000000
H     1.570000000     2.178000000     9.072000000
H     1.436000000     2.811000000     7.703000000
O    -1.944000000    -0.330000000    -6.786000000
H    -2.734000000    -0.218000000    -7.315000000
H    -1.445000000    -1.007000000    -7.241000000
O    -3.058000000     0.473000000    -2.807000000
H    -2.699000000     1.225000000    -2.337000000
H    -3.531000000    -0.023000000    -2.139000000
O    -2.159000000     5.179000000     4.250000000
H    -1.864000000     5.682000000     5.009000000
H    -1.353000000     4.848000000     3.854000000
O    -3.376000000    -2.463000000    -3.216000000
H    -2.910000000    -1.671000000    -3.486000000
H    -4.099000000    -2.539000000    -3.838000000
O     3.241000000     4.935000000    -0.588000000
H     3.529000000     5.741000000    -1.017000000
H     2.316000000     4.857000000    -0.820000000
O    -2.814000000     2.157000000     1.009000000
H    -2.841000000     1.242000000     1.291000000
H    -3.482000000     2.591000000     1.539000000
O     1.221000000    -3.042000000     2.981000000
H     1.702000000    -2.460000000     2.393000000
H     0.781000000    -2.453000000     3.594000000
O    -0.622000000    -5.445000000    -3.585000000
H     0.206000000    -5.041000000    -3.324000000
H    -1.265000000    -5.093000000    -2.969000000
O    -5.234000000    -1.605000000     0.817000000
H    -5.787000000    -1.195000000     0.151000000
H    -5.266000000    -1.001000000     1.559000000
O     1.417000000    -3.409000000     6.778000000
H     2.214000000    -3.148000000     7.239000000
H     1.064000000    -2.591000000     6.429000000
O     0.478000000     3.826000000     3.255000000
H     0.819000000     2.975000000     3.530000000
H     1.258000000     4.359000000     3.102000000
O    -2.238000000     2.786000000    -1.760000000
H    -2.976000000     3.393000000    -1.815000000
H    -2.279000000     2.438000000    -0.870000000
O    -1.174000000    -4.157000000     1.231000000
H    -2.060000000    -3.950000000     1.530000000
H    -0.606000000    -3.604000000     1.766000000
O     0.706000000     4.355000000    -1.531000000
H     0.134000000     3.959000000    -0.874000000
H     0.351000000     4.057000000    -2.369000000
O     2.827000000     3.148000000    -4.122000000
H     1.885000000     3.301000000    -4.197000000
H     2.911000000     2.196000000    -4.073000000
O     1.934000000    -4.718000000     0.374000000
H     1.966000000    -3.926000000     0.912000000
H     1.878000000    -5.434000000     1.006000000
O    -1.898000000     4.006000000    -5.893000000
H    -1.109000000     4.178000000    -5.377000000
H    -1.706000000     3.194000000    -6.361000000
O     3.508000000     0.095000000    -0.310000000
H     4.461000000     0.192000000    -0.308000000
H     3.211000000     0.633000000     0.424000000
O    -0.134000000    -2.038000000    -8.143000000
H     0.520000000    -1.390000000    -8.406000000
H     0.229000000    -2.436000000    -7.351000000
O     3.056000000    -0.179000000    -6.983000000
H     3.307000000    -0.173000000    -7.906000000
H     3.025000000     0.746000000    -6.737000000
O    -1.846000000     1.117000000     7.884000000
H    -2.063000000     1.812000000     7.262000000
H    -1.503000000     0.408000000     7.341000000
O    -0.027000000     3.147000000    -4.040000000
H     0.109000000     2.255000000    -4.361000000
H    -0.818000000     3.091000000    -3.504000000
O     2.964000000    -0.451000000     4.319000000
H     3.018000000    -0.547000000     5.270000000
H     2.215000000     0.128000000     4.178000000
O    -4.029000000     1.442000000    -5.254000000
H    -3.738000000     1.001000000    -6.052000000
H    -3.340000000     1.260000000    -4.615000000
O     4.254000000    -2.848000000     3.518000000
H     3.586000000    -3.508000000     3.332000000
H     3.764000000    -2.102000000     3.864000000
O     2.599000000    -0.500000000     6.943000000
H     2.787000000     0.313000000     7.411000000
H     3.039000000    -1.179000000     7.456000000
O     2.630000000     0.387000000    -4.146000000
H     1.935000000     0.420000000    -4.804000000
H     2.435000000    -0.395000000    -3.630000000
O    -2.822000000    -0.805000000     4.579000000
H    -1.898000000    -0.811000000     4.330000000
H    -2.961000000     0.061000000     4.963000000
O     2.097000000    -1.979000000     0.574000000
H     1.303000000    -1.480000000     0.383000000
H     2.801000000    -1.471000000     0.170000000
O     0.424000000    -5.475000000     3.977000000
H     0.689000000    -4.781000000     3.374000000
H    -0.246000000    -5.070000000     4.529000000
O     2.360000000    -2.293000000    -3.382000000
H     2.024000000    -3.164000000    -3.169000000
H     3.214000000    -2.254000000    -2.951000000
O    -2.340000000    -4.340000000    -1.487000000
H    -2.178000000    -4.000000000    -0.607000000
H    -2.704000000    -3.597000000    -1.968000000
O    -2.094000000    -4.066000000     4.718000000
H    -2.932000000    -4.529000000     4.706000000
H    -2.231000000    -3.307000000     4.152000000
O    -0.193000000    -6.370000000    -0.236000000
H    -0.335000000    -5.424000000    -0.248000000
H    -0.127000000    -6.591000000     0.693000000
O     4.402000000     0.609000000     2.458000000
H     4.838000000     0.017000000     1.845000000
H     4.010000000     0.030000000     3.112000000
O     1.719000000    -5.067000000    -2.533000000
H     1.666000000    -5.275000000    -1.600000000
H     2.480000000    -5.556000000    -2.845000000
O     0.049000000     0.946000000    -5.785000000
H     0.223000000     1.306000000    -6.655000000
H    -0.714000000     0.382000000    -5.907000000
