158
-3042.52968
C     1.135000000     0.431000000     0.872000000
H     2.011000000     0.893000000     1.319000000
C     1.073000000     0.376000000    -0.558000000
H     1.960000000     0.708000000    -1.091000000
C    -0.021000000    -0.011000000    -1.302000000
H     0.052000000    -0.085000000    -2.384000000
C    -1.132000000    -0.419000000    -0.523000000
H    -2.001000000    -0.845000000    -1.017000000
C    -1.120000000    -0.384000000     0.916000000
H    -1.954000000    -0.714000000     1.530000000
C    -0.001000000    -0.011000000     1.583000000
C     0.092000000    -0.138000000     3.088000000
O     1.058000000     0.256000000     3.699000000
O    -0.793000000    -0.578000000     3.795000000
O    -1.784000000    -1.771000000    -3.891000000
H    -2.051000000    -2.069000000    -4.761000000
H    -2.245000000    -2.354000000    -3.287000000
O     3.981000000     1.716000000    -3.908000000
H     4.079000000     1.935000000    -2.982000000
H     4.608000000     1.007000000    -4.053000000
O     3.824000000    -2.151000000     0.526000000
H     3.096000000    -2.213000000    -0.093000000
H     3.422000000    -2.293000000     1.383000000
O    -3.733000000     3.524000000    -2.773000000
H    -4.642000000     3.619000000    -2.487000000
H    -3.792000000     3.407000000    -3.721000000
O     2.673000000    -1.391000000    -5.877000000
H     2.050000000    -0.741000000    -5.551000000
H     2.219000000    -2.228000000    -5.777000000
O    -0.880000000     2.849000000    -0.388000000
H    -1.810000000     2.974000000    -0.201000000
H    -0.767000000     1.899000000    -0.418000000
O     1.848000000    -2.733000000    -1.102000000
H     1.585000000    -3.652000000    -1.055000000
H     1.297000000    -2.293000000    -0.455000000
O    -1.715000000     1.082000000     7.895000000
H    -1.098000000     1.456000000     7.266000000
H    -1.204000000     0.975000000     8.697000000
O     4.876000000     1.371000000    -1.084000000
H     5.112000000     0.677000000    -0.469000000
H     4.622000000     2.108000000    -0.529000000
O     0.693000000    -2.706000000    -3.752000000
H     1.192000000    -2.670000000    -2.936000000
H    -0.107000000    -2.214000000    -3.566000000
O     1.265000000    -4.292000000     4.459000000
H     0.504000000    -3.862000000     4.069000000
H     1.040000000    -4.385000000     5.384000000
O     2.149000000     3.614000000     5.146000000
H     1.500000000     4.098000000     4.635000000
H     2.400000000     2.882000000     4.583000000
O     0.543000000     0.223000000    -5.250000000
H    -0.239000000    -0.270000000    -5.001000000
H     0.273000000     1.140000000    -5.201000000
O     3.303000000     1.528000000     3.814000000
H     2.527000000     1.011000000     3.600000000
H     4.038000000     0.997000000     3.507000000
O     0.206000000    -4.699000000    -0.777000000
H    -0.408000000    -4.122000000    -0.322000000
H     0.024000000    -5.569000000    -0.421000000
O     5.615000000     3.246000000     3.874000000
H     5.173000000     3.951000000     4.347000000
H     4.989000000     2.522000000     3.882000000
O    -1.581000000    -1.449000000     6.234000000
H    -1.236000000    -1.201000000     5.376000000
H    -1.967000000    -0.643000000     6.579000000
O    -0.563000000     1.995000000     5.340000000
H    -1.355000000     2.255000000     4.869000000
H    -0.062000000     1.487000000     4.703000000
O     3.423000000     3.901000000     0.850000000
H     3.362000000     4.193000000    -0.060000000
H     2.524000000     3.943000000     1.176000000
O    -0.667000000     3.463000000    -4.938000000
H    -0.447000000     3.717000000    -4.042000000
H    -1.500000000     3.902000000    -5.114000000
O     3.425000000     4.874000000    -1.722000000
H     3.421000000     4.856000000    -2.679000000
H     3.247000000     5.788000000    -1.500000000
O    -1.011000000    -3.229000000     4.021000000
H    -0.859000000    -2.285000000     3.989000000
H    -1.869000000    -3.348000000     3.615000000
O     2.645000000    -2.283000000     3.170000000
H     2.312000000    -3.115000000     3.505000000
H     2.164000000    -1.617000000     3.662000000
O     0.899000000     0.305000000    -8.176000000
H     0.166000000     0.686000000    -8.661000000
H     0.636000000     0.368000000    -7.258000000
O    -4.346000000    -1.323000000     5.302000000
H    -3.849000000    -2.040000000     5.696000000
H    -4.798000000    -0.912000000     6.040000000
O    -5.657000000     1.825000000     2.696000000
H    -5.865000000     0.914000000     2.492000000
H    -4.863000000     1.777000000     3.228000000
O    -2.097000000    -4.469000000     6.661000000
H    -1.257000000    -4.138000000     6.342000000
H    -2.426000000    -3.775000000     7.233000000
O     0.886000000    -5.079000000    -5.175000000
H     0.231000000    -5.616000000    -4.730000000
H     0.779000000    -4.207000000    -4.796000000
O     0.057000000     4.414000000    -2.494000000
H     0.477000000     5.101000000    -1.976000000
H    -0.302000000     3.810000000    -1.844000000
O    -3.600000000    -2.868000000     2.701000000
H    -4.052000000    -3.684000000     2.913000000
H    -3.878000000    -2.256000000     3.383000000
O    -3.571000000    -3.582000000    -1.854000000
H    -3.845000000    -4.448000000    -2.157000000
H    -3.177000000    -3.741000000    -0.997000000
O     0.715000000    -2.110000000     7.638000000
H     1.251000000    -1.372000000     7.350000000
H    -0.124000000    -1.985000000     7.194000000
O     5.279000000    -0.593000000     3.279000000
H     4.524000000    -1.181000000     3.255000000
H     5.756000000    -0.848000000     4.068000000
O    -2.208000000    -4.091000000     0.489000000
H    -2.402000000    -3.414000000     1.137000000
H    -2.761000000    -4.830000000     0.742000000
O     1.147000000     3.067000000    -6.834000000
H     0.578000000     3.660000000    -6.343000000
H     1.443000000     2.427000000    -6.187000000
O     1.882000000    -0.206000000     6.298000000
H     2.156000000     0.664000000     6.586000000
H     1.389000000    -0.047000000     5.493000000
O     5.738000000    -0.517000000     0.613000000
H     5.925000000    -0.386000000     1.543000000
H     4.958000000    -1.072000000     0.601000000
O     5.050000000    -0.810000000    -4.454000000
H     5.737000000    -0.568000000    -5.075000000
H     4.242000000    -0.782000000    -4.967000000
O    -6.949000000    -0.513000000     1.410000000
H    -7.308000000    -1.356000000     1.686000000
H    -6.118000000    -0.732000000     0.989000000
O    -3.253000000     0.418000000     3.528000000
H    -2.359000000     0.159000000     3.749000000
H    -3.807000000    -0.139000000     4.075000000
O     3.149000000     4.376000000    -4.719000000
H     3.276000000     4.604000000    -5.640000000
H     3.469000000     3.477000000    -4.649000000
O    -2.220000000    -1.709000000    -7.046000000
H    -2.152000000    -0.887000000    -7.531000000
H    -3.145000000    -1.948000000    -7.109000000
O     0.728000000     4.052000000     1.262000000
H     0.338000000     4.891000000     1.508000000
H     0.076000000     3.643000000     0.694000000
O    -3.438000000     3.414000000     0.213000000
H    -4.096000000     3.918000000     0.692000000
H    -3.837000000     3.248000000    -0.641000000
O    -4.687000000    -1.830000000    -3.401000000
H    -4.317000000    -2.482000000    -2.805000000
H    -4.200000000    -1.028000000    -3.212000000
O     2.655000000     2.677000000     7.524000000
H     2.475000000     3.001000000     6.641000000
H     2.022000000     3.132000000     8.080000000
O     4.336000000    -3.113000000    -2.892000000
H     3.845000000    -2.684000000    -2.191000000
H     4.688000000    -2.393000000    -3.414000000
O    -2.229000000     3.192000000     2.865000000
H    -2.792000000     2.418000000     2.889000000
H    -2.420000000     3.602000000     2.022000000
