158
-3013.48482
C     1.346000000     0.300000000     0.519000000
H     2.366000000     0.594000000     0.753000000
C     0.870000000     0.603000000    -0.782000000
H     1.437000000     1.226000000    -1.469000000
C    -0.385000000     0.188000000    -1.175000000
H    -0.824000000     0.287000000    -2.177000000
C    -1.185000000    -0.378000000    -0.212000000
H    -2.166000000    -0.679000000    -0.569000000
C    -0.745000000    -0.625000000     1.088000000
H    -1.399000000    -1.070000000     1.834000000
C     0.581000000    -0.372000000     1.430000000
C     0.984000000    -0.633000000     2.901000000
O     2.108000000    -0.233000000     3.241000000
O     0.275000000    -1.162000000     3.741000000
O    -1.268000000     2.432000000     5.902000000
H    -1.640000000     3.307000000     6.006000000
H    -0.495000000     2.432000000     6.467000000
O    -2.182000000    -1.317000000    -3.821000000
H    -2.343000000    -2.091000000    -4.362000000
H    -2.920000000    -1.294000000    -3.211000000
O    -1.431000000    -2.378000000    -6.461000000
H    -1.001000000    -1.949000000    -5.721000000
H    -1.319000000    -1.768000000    -7.190000000
O     4.694000000     2.390000000    -2.524000000
H     5.071000000     2.086000000    -1.698000000
H     4.873000000     1.682000000    -3.143000000
O     2.942000000    -3.027000000    -0.215000000
H     2.071000000    -2.890000000    -0.587000000
H     2.778000000    -3.421000000     0.641000000
O    -4.454000000     2.585000000     1.262000000
H    -5.183000000     3.204000000     1.225000000
H    -4.314000000     2.325000000     0.352000000
O     2.709000000    -1.847000000    -4.330000000
H     1.969000000    -1.265000000    -4.502000000
H     2.398000000    -2.714000000    -4.591000000
O     0.736000000     3.603000000     2.529000000
H    -0.005000000     3.134000000     2.148000000
H     0.953000000     4.275000000     1.883000000
O     3.072000000     1.002000000    -6.195000000
H     2.834000000     0.095000000    -6.001000000
H     2.755000000     1.148000000    -7.086000000
O     0.613000000    -2.876000000    -1.443000000
H     0.321000000    -2.245000000    -0.786000000
H     0.452000000    -2.441000000    -2.281000000
O     1.926000000    -2.167000000     8.634000000
H     1.760000000    -1.224000000     8.631000000
H     1.411000000    -2.503000000     7.900000000
O     5.926000000     1.414000000    -0.269000000
H     6.608000000     0.779000000    -0.050000000
H     5.255000000     1.286000000     0.401000000
O     1.563000000    -4.090000000     4.927000000
H     0.767000000    -3.647000000     5.220000000
H     2.034000000    -4.294000000     5.735000000
O     0.253000000    -0.471000000    -4.588000000
H    -0.634000000    -0.703000000    -4.314000000
H     0.240000000     0.484000000    -4.657000000
O     4.743000000     0.297000000     2.031000000
H     3.893000000     0.400000000     2.459000000
H     5.301000000    -0.102000000     2.699000000
O    -1.131000000    -4.947000000     2.350000000
H    -2.055000000    -4.722000000     2.454000000
H    -1.097000000    -5.893000000     2.492000000
O     4.208000000     2.965000000     5.240000000
H     3.472000000     2.612000000     4.741000000
H     4.804000000     3.311000000     4.576000000
O     1.858000000    -4.589000000     2.065000000
H     1.924000000    -3.831000000     2.646000000
H     0.918000000    -4.740000000     1.973000000
O     1.486000000     1.200000000     6.979000000
H     1.771000000     1.605000000     6.159000000
H     1.159000000     0.339000000     6.720000000
O     0.237000000     5.916000000    -3.325000000
H    -0.422000000     5.472000000    -2.790000000
H     1.044000000     5.429000000    -3.164000000
O     5.723000000     3.349000000     2.452000000
H     5.008000000     3.450000000     1.823000000
H     6.175000000     2.552000000     2.174000000
O    -0.305000000     2.499000000    -4.439000000
H    -0.803000000     2.906000000    -3.731000000
H    -0.925000000     2.440000000    -5.166000000
O     0.815000000     3.374000000    -7.349000000
H     0.624000000     3.213000000    -6.425000000
H     0.039000000     3.827000000    -7.679000000
O     3.199000000     3.919000000     0.458000000
H     2.960000000     3.368000000    -0.287000000
H     2.476000000     4.543000000     0.536000000
O    -1.566000000    -2.795000000     3.988000000
H    -1.051000000    -2.018000000     3.774000000
H    -1.214000000    -3.480000000     3.420000000
O     3.670000000    -2.551000000     3.441000000
H     2.888000000    -2.733000000     3.962000000
H     3.549000000    -1.653000000     3.134000000
O    -4.865000000     4.563000000    -3.034000000
H    -4.509000000     3.728000000    -3.337000000
H    -5.645000000     4.322000000    -2.533000000
O    -0.609000000    -0.108000000    -7.992000000
H    -0.851000000     0.621000000    -7.421000000
H    -1.371000000    -0.231000000    -8.558000000
O    -2.214000000    -0.599000000     7.151000000
H    -3.091000000    -0.450000000     7.503000000
H    -2.241000000    -0.222000000     6.272000000
O    -4.738000000    -0.265000000     3.964000000
H    -5.000000000    -1.139000000     3.677000000
H    -3.789000000    -0.324000000     4.075000000
O     0.883000000    -4.275000000    -4.918000000
H     1.249000000    -4.942000000    -4.338000000
H     0.032000000    -4.065000000    -4.535000000
O    -1.706000000     4.795000000    -1.690000000
H    -1.652000000     5.377000000    -0.931000000
H    -2.601000000     4.456000000    -1.668000000
O    -4.008000000    -3.570000000    -0.054000000
H    -3.743000000    -4.322000000    -0.584000000
H    -4.056000000    -3.911000000     0.839000000
O     6.100000000    -1.291000000     4.318000000
H     5.547000000    -2.069000000     4.248000000
H     6.988000000    -1.614000000     4.163000000
O    -3.759000000    -4.429000000     2.604000000
H    -4.394000000    -3.765000000     2.871000000
H    -4.293000000    -5.173000000     2.326000000
O     2.350000000     3.734000000    -2.791000000
H     2.001000000     2.901000000    -3.108000000
H     3.297000000     3.599000000    -2.756000000
O     0.279000000    -1.485000000     6.452000000
H    -0.667000000    -1.528000000     6.593000000
H     0.380000000    -1.494000000     5.500000000
O    -1.771000000    -4.519000000    -3.772000000
H    -2.502000000    -4.578000000    -4.387000000
H    -2.011000000    -5.109000000    -3.057000000
O     4.713000000    -0.072000000    -3.594000000
H     4.704000000    -0.268000000    -2.657000000
H     4.117000000    -0.713000000    -3.979000000
O    -4.802000000     1.591000000    -5.571000000
H    -5.461000000     2.253000000    -5.779000000
H    -5.103000000     0.802000000    -6.023000000
O    -1.862000000     0.304000000     4.355000000
H    -1.062000000    -0.175000000     4.141000000
H    -1.554000000     1.126000000     4.737000000
O    -2.038000000     1.987000000    -6.621000000
H    -2.890000000     1.848000000    -6.208000000
H    -2.207000000     2.631000000    -7.309000000
O     1.830000000     2.025000000     4.383000000
H     1.938000000     1.243000000     3.841000000
H     1.409000000     2.661000000     3.804000000
O    -1.600000000     2.239000000     1.350000000
H    -1.499000000     1.571000000     0.671000000
H    -2.546000000     2.311000000     1.475000000
O    -3.909000000    -3.316000000    -5.293000000
H    -4.536000000    -2.612000000    -5.125000000
H    -3.214000000    -2.901000000    -5.804000000
O    -4.715000000     1.476000000    -1.376000000
H    -4.542000000     0.654000000    -0.918000000
H    -5.588000000     1.363000000    -1.752000000
O    -4.048000000    -1.478000000    -1.743000000
H    -3.756000000    -2.084000000    -1.061000000
H    -4.882000000    -1.138000000    -1.420000000
O    -3.221000000     2.456000000    -3.394000000
H    -3.397000000     1.956000000    -2.597000000
H    -3.707000000     1.997000000    -4.078000000
