158
-3034.86439
C     0.714000000    -0.619000000     1.106000000
H     1.340000000    -1.001000000     1.908000000
C     1.292000000    -0.416000000    -0.124000000
H     2.349000000    -0.652000000    -0.214000000
C     0.449000000     0.068000000    -1.119000000
H     0.785000000     0.153000000    -2.163000000
C    -0.878000000     0.376000000    -0.902000000
H    -1.451000000     0.823000000    -1.710000000
C    -1.350000000     0.376000000     0.402000000
H    -2.353000000     0.762000000     0.567000000
C    -0.584000000    -0.154000000     1.405000000
C    -1.100000000    -0.391000000     2.830000000
O    -0.389000000    -0.717000000     3.771000000
O    -2.241000000    -0.157000000     3.020000000
O     0.444000000     0.848000000     5.663000000
H     0.259000000     0.058000000     5.155000000
H    -0.417000000     1.168000000     5.931000000
O    -3.258000000    -1.629000000    -2.356000000
H    -3.854000000    -0.901000000    -2.185000000
H    -3.098000000    -2.016000000    -1.495000000
O     3.881000000     2.023000000    -1.536000000
H     4.241000000     2.592000000    -0.855000000
H     4.486000000     1.283000000    -1.575000000
O     4.389000000    -1.483000000     1.139000000
H     4.203000000    -0.551000000     1.028000000
H     5.313000000    -1.515000000     1.387000000
O    -4.154000000     2.812000000    -0.929000000
H    -4.499000000     2.088000000    -1.452000000
H    -3.433000000     3.162000000    -1.452000000
O    -0.408000000     3.595000000     5.383000000
H    -1.335000000     3.357000000     5.374000000
H     0.048000000     2.792000000     5.131000000
O     3.184000000    -0.040000000    -4.692000000
H     2.237000000     0.092000000    -4.718000000
H     3.378000000    -0.542000000    -5.484000000
O    -7.323000000     0.692000000     3.328000000
H    -6.396000000     0.465000000     3.406000000
H    -7.363000000     1.619000000     3.561000000
O     0.986000000     2.666000000     0.532000000
H     0.748000000     1.842000000     0.108000000
H     1.027000000     3.301000000    -0.183000000
O     1.026000000    -3.628000000    -5.591000000
H     0.241000000    -3.081000000    -5.561000000
H     0.961000000    -4.182000000    -4.813000000
O    -2.276000000    -1.705000000     5.518000000
H    -1.765000000    -2.364000000     5.989000000
H    -1.679000000    -1.374000000     4.847000000
O    -0.433000000    -3.067000000    -0.433000000
H    -0.194000000    -2.149000000    -0.306000000
H    -1.372000000    -3.098000000    -0.250000000
O    -7.292000000     0.783000000    -0.384000000
H    -6.724000000     0.956000000     0.366000000
H    -7.661000000    -0.084000000    -0.211000000
O     5.258000000     2.867000000     0.660000000
H     5.528000000     2.000000000     0.963000000
H     4.727000000     3.216000000     1.376000000
O    -0.882000000    -1.810000000    -3.621000000
H    -0.870000000    -0.987000000    -4.109000000
H    -1.714000000    -1.795000000    -3.147000000
O     1.680000000    -4.883000000     5.434000000
H     1.408000000    -4.276000000     4.745000000
H     2.536000000    -5.202000000     5.147000000
O     4.881000000    -4.520000000     0.324000000
H     4.351000000    -4.942000000     1.000000000
H     5.250000000    -3.750000000     0.756000000
O     4.146000000     1.673000000    -6.811000000
H     3.845000000     1.541000000    -5.912000000
H     4.190000000     2.623000000    -6.912000000
O    -0.884000000     4.108000000    -6.179000000
H    -1.515000000     4.813000000    -6.030000000
H    -0.099000000     4.387000000    -5.709000000
O     0.518000000    -5.264000000     0.632000000
H     0.364000000    -4.459000000     0.137000000
H    -0.152000000    -5.256000000     1.316000000
O     1.132000000    -0.634000000     8.065000000
H     0.957000000    -0.259000000     7.201000000
H     0.296000000    -1.015000000     8.333000000
O     2.955000000     1.667000000     4.538000000
H     2.944000000     1.899000000     3.610000000
H     2.071000000     1.346000000     4.716000000
O     1.624000000     4.868000000    -4.678000000
H     2.013000000     5.621000000    -4.235000000
H     2.362000000     4.284000000    -4.852000000
O     1.348000000     3.749000000    -2.037000000
H     1.528000000     4.252000000    -2.831000000
H     2.197000000     3.380000000    -1.791000000
O     0.713000000    -3.117000000     3.440000000
H     0.290000000    -2.288000000     3.662000000
H     0.012000000    -3.650000000     3.063000000
O     3.647000000    -2.102000000     4.251000000
H     4.161000000    -2.067000000     3.444000000
H     2.739000000    -2.168000000     3.954000000
O    -4.254000000     0.370000000     6.048000000
H    -3.755000000     1.063000000     5.616000000
H    -3.778000000    -0.434000000     5.838000000
O    -4.090000000     3.085000000     2.644000000
H    -3.324000000     3.304000000     2.115000000
H    -4.197000000     2.140000000     2.533000000
O     4.895000000    -1.062000000    -2.860000000
H     4.385000000    -0.440000000    -3.379000000
H     4.266000000    -1.740000000    -2.613000000
O    -3.788000000    -3.442000000     3.646000000
H    -3.598000000    -2.597000000     4.052000000
H    -3.920000000    -4.038000000     4.383000000
O    -3.510000000    -2.733000000     0.050000000
H    -3.786000000    -3.648000000     0.009000000
H    -4.112000000    -2.329000000     0.676000000
O     3.605000000     3.079000000    -4.546000000
H     4.559000000     3.052000000    -4.617000000
H     3.392000000     2.390000000    -3.917000000
O    -4.841000000     0.883000000    -2.627000000
H    -4.629000000     1.300000000    -3.462000000
H    -5.757000000     0.618000000    -2.717000000
O    -6.000000000    -1.573000000     1.326000000
H    -6.537000000    -1.844000000     2.071000000
H    -6.593000000    -1.615000000     0.576000000
O    -4.024000000     1.639000000    -5.025000000
H    -3.928000000     2.570000000    -4.826000000
H    -4.291000000     1.616000000    -5.944000000
O    -4.648000000     0.285000000     2.542000000
H    -3.735000000     0.030000000     2.672000000
H    -5.027000000    -0.431000000     2.032000000
O    -2.174000000    -0.120000000    -6.132000000
H    -1.930000000     0.364000000    -6.921000000
H    -2.760000000     0.472000000    -5.660000000
O    -5.870000000     3.971000000     0.725000000
H    -5.334000000     3.591000000     0.029000000
H    -5.558000000     3.549000000     1.525000000
O     3.086000000     3.206000000     2.270000000
H     2.895000000     4.043000000     2.695000000
H     2.301000000     3.014000000     1.757000000
O    -1.069000000     4.446000000    -0.996000000
H    -1.211000000     5.087000000    -1.692000000
H    -0.564000000     3.748000000    -1.413000000
O     3.620000000    -4.199000000    -3.068000000
H     3.433000000    -4.932000000    -2.482000000
H     2.789000000    -4.028000000    -3.511000000
O    -3.734000000    -2.338000000    -5.436000000
H    -4.191000000    -2.158000000    -4.614000000
H    -3.123000000    -1.608000000    -5.535000000
O    -1.596000000    -4.695000000     2.253000000
H    -2.125000000    -5.488000000     2.338000000
H    -2.210000000    -3.979000000     2.413000000
O     0.359000000    -4.377000000    -3.132000000
H     0.036000000    -3.489000000    -2.982000000
H    -0.418000000    -4.931000000    -3.059000000
O    -1.718000000     3.741000000     1.651000000
H    -1.510000000     3.959000000     0.743000000
H    -0.973000000     3.218000000     1.948000000
O     0.429000000     0.478000000    -4.956000000
H    -0.209000000     0.158000000    -5.593000000
H     0.653000000     1.358000000    -5.261000000
O    -2.625000000     1.915000000     4.667000000
H    -2.574000000     1.212000000     4.020000000
H    -3.122000000     2.607000000     4.230000000
O    -0.661000000    -3.933000000     6.325000000
H    -0.402000000    -4.406000000     7.116000000
H     0.074000000    -4.050000000     5.724000000
