158
-3029.68006
C     1.331000000     0.471000000     0.315000000
H     2.376000000     0.720000000     0.479000000
C     0.953000000     0.022000000    -0.944000000
H     1.650000000    -0.017000000    -1.777000000
C    -0.384000000    -0.232000000    -1.123000000
H    -0.646000000    -0.644000000    -2.161000000
C    -1.361000000    -0.069000000    -0.147000000
H    -2.329000000    -0.516000000    -0.355000000
C    -0.914000000     0.232000000     1.150000000
H    -1.601000000     0.325000000     1.987000000
C     0.445000000     0.536000000     1.376000000
C     0.954000000     0.765000000     2.825000000
O     2.109000000     0.982000000     3.045000000
O     0.116000000     0.911000000     3.719000000
O     3.878000000     3.100000000     2.269000000
H     3.220000000     3.697000000     1.913000000
H     3.371000000     2.437000000     2.738000000
O    -0.936000000    -0.243000000    -4.893000000
H    -1.014000000    -0.815000000    -4.129000000
H    -1.751000000     0.259000000    -4.900000000
O     2.060000000    -1.582000000    -7.799000000
H     1.678000000    -2.336000000    -8.249000000
H     1.807000000    -1.698000000    -6.883000000
O     3.172000000    -3.301000000    -1.956000000
H     2.420000000    -2.773000000    -2.224000000
H     3.266000000    -3.953000000    -2.650000000
O    -5.931000000    -3.598000000     0.963000000
H    -6.387000000    -2.963000000     0.410000000
H    -5.115000000    -3.160000000     1.206000000
O     0.293000000     3.807000000     4.080000000
H     0.248000000     2.856000000     3.981000000
H     1.156000000     3.968000000     4.462000000
O    -3.277000000    -0.615000000    -3.038000000
H    -3.729000000    -1.415000000    -3.305000000
H    -3.800000000     0.093000000    -3.415000000
O     0.701000000    -2.914000000     0.225000000
H     0.412000000    -2.024000000     0.023000000
H     1.339000000    -2.804000000     0.931000000
O     2.647000000     3.052000000    -1.443000000
H     1.905000000     3.218000000    -2.024000000
H     2.392000000     3.446000000    -0.610000000
O    -0.688000000     5.900000000     2.725000000
H    -0.397000000     5.155000000     3.251000000
H    -0.924000000     5.519000000     1.880000000
O     1.133000000     0.290000000     5.920000000
H     0.805000000     0.536000000     5.055000000
H     1.938000000    -0.196000000     5.742000000
O     5.543000000     2.728000000     4.654000000
H     4.833000000     2.800000000     4.017000000
H     5.845000000     1.823000000     4.575000000
O    -4.153000000    -5.708000000    -2.269000000
H    -4.270000000    -4.804000000    -2.561000000
H    -3.345000000    -5.995000000    -2.695000000
O     4.369000000     0.855000000    -1.758000000
H     5.155000000     1.202000000    -2.180000000
H     3.803000000     1.618000000    -1.645000000
O    -1.890000000     5.059000000     0.477000000
H    -1.425000000     4.385000000    -0.020000000
H    -2.797000000     4.755000000     0.502000000
O     3.834000000    -4.404000000     1.038000000
H     4.689000000    -4.118000000     0.716000000
H     3.259000000    -3.652000000     0.892000000
O    -1.317000000    -1.230000000     4.563000000
H    -1.008000000    -1.825000000     3.879000000
H    -0.970000000    -0.375000000     4.310000000
O    -0.155000000    -1.453000000     7.631000000
H    -1.072000000    -1.192000000     7.717000000
H     0.101000000    -1.144000000     6.761000000
O    -5.976000000     1.137000000     4.401000000
H    -5.468000000     1.923000000     4.201000000
H    -6.359000000     0.878000000     3.563000000
O    -3.798000000    -4.128000000    -6.403000000
H    -3.807000000    -5.086000000    -6.399000000
H    -3.042000000    -3.894000000    -5.864000000
O    -4.457000000     2.316000000    -0.166000000
H    -3.930000000     2.698000000    -0.868000000
H    -5.064000000     3.013000000     0.084000000
O    -4.335000000     0.457000000     1.997000000
H    -5.284000000     0.345000000     2.046000000
H    -4.195000000     0.966000000     1.199000000
O    -3.132000000     3.105000000    -2.283000000
H    -3.612000000     3.924000000    -2.403000000
H    -3.184000000     2.670000000    -3.134000000
O     2.816000000     3.876000000     5.736000000
H     3.706000000     3.563000000     5.900000000
H     2.336000000     3.663000000     6.536000000
O    -3.912000000     1.932000000    -4.689000000
H    -4.047000000     2.824000000    -5.008000000
H    -4.688000000     1.453000000    -4.981000000
O    -0.290000000    -5.139000000    -1.261000000
H     0.192000000    -4.655000000    -0.591000000
H    -1.006000000    -5.560000000    -0.785000000
O    -4.851000000    -3.087000000    -2.836000000
H    -5.677000000    -3.381000000    -3.220000000
H    -5.080000000    -2.289000000    -2.359000000
O    -1.284000000    -2.900000000    -2.705000000
H    -2.064000000    -2.365000000    -2.558000000
H    -1.072000000    -3.257000000    -1.842000000
O     0.564000000     1.002000000    -7.375000000
H     0.414000000     0.678000000    -6.487000000
H     1.009000000     0.282000000    -7.822000000
O    -2.277000000     2.125000000     8.000000000
H    -1.349000000     1.896000000     7.948000000
H    -2.679000000     1.391000000     8.465000000
O     4.613000000    -1.462000000    -0.235000000
H     4.267000000    -2.168000000    -0.780000000
H     4.624000000    -0.697000000    -0.811000000
O     3.725000000    -0.569000000     5.533000000
H     3.948000000    -0.324000000     4.635000000
H     4.287000000    -0.019000000     6.078000000
O    -3.045000000    -1.138000000     7.104000000
H    -4.002000000    -1.118000000     7.084000000
H    -2.794000000    -1.460000000     6.238000000
O    -3.561000000    -2.712000000     2.509000000
H    -2.700000000    -3.123000000     2.435000000
H    -3.373000000    -1.777000000     2.593000000
O    -1.543000000    -6.024000000    -3.584000000
H    -1.374000000    -5.491000000    -4.360000000
H    -1.057000000    -5.589000000    -2.884000000
O     7.275000000    -0.935000000     0.302000000
H     6.634000000    -0.450000000     0.823000000
H     6.811000000    -1.725000000     0.026000000
O     1.437000000     1.888000000     8.011000000
H     2.389000000     1.840000000     8.101000000
H     1.238000000     1.326000000     7.263000000
O     5.635000000     2.160000000     0.486000000
H     5.093000000     1.811000000    -0.221000000
H     5.011000000     2.399000000     1.171000000
O     3.862000000    -0.413000000    -4.389000000
H     3.978000000     0.095000000    -3.586000000
H     4.655000000    -0.946000000    -4.451000000
O    -0.455000000     3.317000000    -1.260000000
H    -1.279000000     3.287000000    -1.745000000
H    -0.240000000     2.398000000    -1.097000000
O    -1.058000000    -3.625000000     2.235000000
H    -0.216000000    -3.557000000     1.784000000
H    -1.214000000    -4.566000000     2.311000000
O     4.418000000    -0.044000000     2.752000000
H     4.520000000    -0.536000000     1.937000000
H     3.541000000     0.336000000     2.693000000
O    -6.464000000    -0.651000000    -2.568000000
H    -7.255000000    -1.128000000    -2.315000000
H    -6.436000000     0.099000000    -1.974000000
O    -0.948000000    -3.885000000    -5.235000000
H    -0.058000000    -3.804000000    -5.576000000
H    -0.889000000    -3.565000000    -4.334000000
O    -3.019000000     2.885000000     2.744000000
H    -3.198000000     2.257000000     2.044000000
H    -2.791000000     2.343000000     3.500000000
O     1.371000000    -2.042000000    -5.079000000
H     0.511000000    -1.633000000    -4.989000000
H     1.978000000    -1.415000000    -4.685000000
O     1.640000000     4.594000000     1.514000000
H     1.096000000     4.270000000     2.232000000
H     1.383000000     5.511000000     1.413000000
O     2.281000000    -2.531000000     2.368000000
H     2.284000000    -1.617000000     2.652000000
H     2.709000000    -3.005000000     3.081000000
