158
-3058.39630
C     1.323000000    -0.149000000     0.628000000
H     2.347000000    -0.357000000     0.928000000
C     1.006000000    -0.439000000    -0.747000000
H     1.820000000    -0.563000000    -1.456000000
C    -0.291000000    -0.300000000    -1.204000000
H    -0.510000000    -0.646000000    -2.182000000
C    -1.304000000     0.044000000    -0.305000000
H    -2.319000000     0.130000000    -0.683000000
C    -0.996000000     0.369000000     1.028000000
H    -1.763000000     0.584000000     1.768000000
C     0.306000000     0.218000000     1.499000000
C     0.689000000     0.654000000     2.948000000
O     1.800000000     0.471000000     3.375000000
O    -0.119000000     1.276000000     3.631000000
O     2.468000000     2.948000000    -6.162000000
H     2.353000000     2.726000000    -5.238000000
H     1.614000000     2.775000000    -6.558000000
O     4.636000000     1.283000000     1.734000000
H     4.205000000     1.891000000     1.133000000
H     4.093000000     0.495000000     1.708000000
O     0.257000000    -0.512000000    -6.277000000
H    -0.572000000    -0.682000000    -5.831000000
H     0.007000000    -0.298000000    -7.176000000
O     2.429000000    -3.845000000    -1.862000000
H     2.704000000    -4.391000000    -2.599000000
H     2.306000000    -2.975000000    -2.241000000
O    -2.798000000     2.443000000    -6.463000000
H    -3.000000000     1.696000000    -5.900000000
H    -3.218000000     2.235000000    -7.297000000
O     2.737000000     3.351000000     3.319000000
H     2.376000000     2.469000000     3.412000000
H     3.527000000     3.345000000     3.858000000
O    -2.086000000    -1.374000000    -5.203000000
H    -2.259000000    -1.533000000    -4.275000000
H    -2.868000000    -0.921000000    -5.519000000
O    -2.876000000     0.990000000    -3.040000000
H    -2.808000000     0.061000000    -2.818000000
H    -3.816000000     1.145000000    -3.135000000
O     3.876000000     1.768000000    -2.036000000
H     3.079000000     1.379000000    -2.397000000
H     3.620000000     2.073000000    -1.166000000
O     0.644000000     3.441000000     5.268000000
H     0.374000000     2.578000000     4.953000000
H     1.328000000     3.715000000     4.657000000
O     0.262000000     0.119000000     6.174000000
H     0.197000000     0.526000000     5.310000000
H     0.526000000    -0.783000000     5.995000000
O     1.106000000    -3.677000000     1.924000000
H     0.548000000    -3.782000000     1.154000000
H     1.989000000    -3.869000000     1.608000000
O    -1.677000000     5.826000000     1.249000000
H    -0.929000000     6.385000000     1.455000000
H    -1.442000000     4.969000000     1.606000000
O     5.838000000     1.691000000     4.203000000
H     5.204000000     1.379000000     3.558000000
H     6.492000000     0.994000000     4.253000000
O     5.807000000    -0.170000000    -1.097000000
H     6.598000000     0.266000000    -1.415000000
H     5.116000000     0.485000000    -1.198000000
O     0.324000000     5.046000000    -5.766000000
H     0.648000000     4.649000000    -4.957000000
H    -0.313000000     5.698000000    -5.474000000
O    -0.956000000     3.531000000     2.318000000
H    -0.857000000     2.940000000     3.065000000
H    -0.590000000     3.046000000     1.579000000
O     3.521000000    -4.171000000     0.537000000
H     3.847000000    -3.271000000     0.566000000
H     3.035000000    -4.222000000    -0.286000000
O    -0.808000000    -5.672000000    -5.744000000
H    -1.214000000    -5.013000000    -6.307000000
H    -0.657000000    -5.219000000    -4.915000000
O    -2.905000000    -1.070000000     3.615000000
H    -2.191000000    -1.633000000     3.316000000
H    -2.827000000    -1.069000000     4.569000000
O    -4.795000000     2.286000000     2.371000000
H    -4.915000000     3.188000000     2.670000000
H    -5.418000000     2.188000000     1.651000000
O    -2.568000000     1.731000000     4.527000000
H    -1.935000000     1.262000000     3.984000000
H    -3.297000000     1.118000000     4.629000000
O    -1.706000000     3.547000000    -2.683000000
H    -1.976000000     4.055000000    -3.448000000
H    -2.122000000     2.693000000    -2.803000000
O     3.700000000     3.765000000     5.975000000
H     4.402000000     3.167000000     6.231000000
H     3.042000000     3.671000000     6.664000000
O    -6.068000000    -0.496000000    -0.957000000
H    -5.328000000    -0.633000000    -0.365000000
H    -6.438000000    -1.369000000    -1.085000000
O    -2.613000000     4.583000000    -4.945000000
H    -3.555000000     4.748000000    -5.001000000
H    -2.471000000     3.818000000    -5.502000000
O    -3.675000000    -2.872000000    -0.049000000
H    -3.768000000    -2.158000000     0.583000000
H    -3.192000000    -3.549000000     0.425000000
O    -0.106000000    -3.291000000    -0.800000000
H     0.841000000    -3.157000000    -0.746000000
H    -0.470000000    -2.408000000    -0.857000000
O     0.742000000    -0.266000000     9.019000000
H     0.709000000     0.015000000     8.104000000
H    -0.072000000    -0.752000000     9.150000000
O    -5.819000000     0.669000000    -4.117000000
H    -5.824000000     0.588000000    -3.163000000
H    -6.578000000     0.160000000    -4.403000000
O     4.524000000    -1.524000000     1.167000000
H     5.149000000    -2.139000000     1.551000000
H     5.009000000    -1.102000000     0.458000000
O     1.584000000     0.760000000    -3.566000000
H     1.406000000    -0.037000000    -4.066000000
H     0.955000000     1.399000000    -3.903000000
O     1.367000000    -2.474000000     5.608000000
H     1.671000000    -3.348000000     5.854000000
H     2.053000000    -2.135000000     5.033000000
O    -1.781000000    -3.209000000    -7.337000000
H    -2.708000000    -3.426000000    -7.435000000
H    -1.760000000    -2.558000000    -6.635000000
O    -4.389000000    -0.347000000     1.203000000
H    -4.026000000    -0.659000000     2.032000000
H    -4.352000000     0.607000000     1.269000000
O     1.711000000     3.546000000     7.758000000
H     1.156000000     3.564000000     6.979000000
H     1.099000000     3.440000000     8.486000000
O     7.511000000     1.162000000     1.345000000
H     7.507000000     1.155000000     0.388000000
H     6.603000000     0.983000000     1.589000000
O     4.777000000    -1.044000000    -3.820000000
H     5.621000000    -0.977000000    -4.267000000
H     4.936000000    -0.677000000    -2.950000000
O    -1.698000000     4.985000000     5.356000000
H    -0.867000000     4.539000000     5.192000000
H    -2.326000000     4.536000000     4.791000000
O     0.004000000     2.936000000    -0.449000000
H    -0.603000000     3.300000000    -1.093000000
H     0.022000000     1.998000000    -0.640000000
O     3.295000000    -1.569000000     3.874000000
H     3.519000000    -1.807000000     2.974000000
H     2.705000000    -0.821000000     3.783000000
O     5.848000000    -2.327000000     4.810000000
H     4.939000000    -2.025000000     4.818000000
H     5.930000000    -2.858000000     5.602000000
O    -3.213000000    -2.071000000    -2.559000000
H    -3.546000000    -2.773000000    -3.119000000
H    -3.376000000    -2.379000000    -1.667000000
O    -0.545000000    -4.260000000    -3.499000000
H    -0.437000000    -4.083000000    -2.565000000
H     0.185000000    -3.801000000    -3.916000000
O    -1.605000000     1.678000000     7.267000000
H    -2.033000000     2.112000000     6.528000000
H    -0.866000000     1.212000000     6.875000000
O     1.388000000    -2.626000000    -4.400000000
H     1.912000000    -3.317000000    -4.804000000
H     1.093000000    -2.088000000    -5.134000000
O     2.970000000     2.941000000     0.478000000
H     3.206000000     3.639000000     1.088000000
H     2.056000000     2.741000000     0.684000000
O    -0.600000000    -2.500000000     3.751000000
H     0.021000000    -2.455000000     4.478000000
H    -0.121000000    -2.951000000     3.055000000
