158
-3065.09015
C     1.370000000     0.031000000     0.570000000
H     2.417000000     0.064000000     0.860000000
C     1.075000000    -0.457000000    -0.716000000
H     1.843000000    -0.647000000    -1.461000000
C    -0.249000000    -0.466000000    -1.114000000
H    -0.538000000    -0.858000000    -2.072000000
C    -1.279000000    -0.011000000    -0.258000000
H    -2.299000000    -0.020000000    -0.635000000
C    -0.991000000     0.453000000     1.042000000
H    -1.715000000     0.838000000     1.755000000
C     0.381000000     0.484000000     1.489000000
C     0.669000000     0.982000000     2.850000000
O     1.781000000     0.946000000     3.398000000
O    -0.203000000     1.423000000     3.560000000
O     6.719000000     0.639000000     1.874000000
H     7.204000000     0.656000000     2.699000000
H     6.092000000     1.359000000     1.949000000
O    -2.041000000     4.208000000     3.210000000
H    -2.318000000     3.314000000     3.012000000
H    -1.524000000     4.126000000     4.012000000
O    -2.979000000     4.434000000     0.248000000
H    -3.554000000     5.146000000    -0.032000000
H    -2.252000000     4.874000000     0.689000000
O    -4.280000000     2.678000000     1.856000000
H    -3.922000000     3.288000000     1.211000000
H    -4.505000000     1.898000000     1.349000000
O    -1.263000000     2.779000000    -6.070000000
H    -1.552000000     2.447000000    -5.221000000
H    -0.847000000     3.618000000    -5.870000000
O    -2.217000000    -0.527000000     3.815000000
H    -1.614000000     0.207000000     3.701000000
H    -3.085000000    -0.146000000     3.680000000
O    -2.583000000     1.982000000    -3.893000000
H    -2.509000000     2.783000000    -3.374000000
H    -3.429000000     1.612000000    -3.642000000
O     5.218000000    -3.026000000    -0.805000000
H     5.540000000    -2.154000000    -0.577000000
H     4.855000000    -2.924000000    -1.685000000
O    -1.593000000     3.651000000    -1.930000000
H    -0.961000000     3.045000000    -1.543000000
H    -2.230000000     3.810000000    -1.233000000
O     3.681000000    -4.104000000     1.094000000
H     2.975000000    -4.575000000     0.651000000
H     4.277000000    -3.848000000     0.389000000
O     4.285000000     0.173000000    -2.076000000
H     5.058000000    -0.140000000    -1.606000000
H     3.977000000     0.918000000    -1.560000000
O     4.482000000     2.195000000     6.919000000
H     3.875000000     1.504000000     6.654000000
H     4.936000000     2.437000000     6.112000000
O     6.196000000    -2.626000000     3.039000000
H     6.632000000    -2.546000000     2.191000000
H     5.469000000    -2.005000000     2.995000000
O     1.014000000     4.701000000     2.616000000
H     0.939000000     5.592000000     2.958000000
H     0.394000000     4.192000000     3.138000000
O    -0.424000000     3.340000000     5.145000000
H    -0.736000000     3.066000000     6.008000000
H    -0.281000000     2.521000000     4.670000000
O    -4.729000000     0.462000000     0.042000000
H    -5.684000000     0.458000000    -0.025000000
H    -4.464000000    -0.408000000    -0.257000000
O     4.100000000     1.844000000     2.439000000
H     3.246000000     1.441000000     2.596000000
H     4.234000000     2.422000000     3.191000000
O     2.480000000    -4.103000000    -6.154000000
H     2.270000000    -4.082000000    -7.088000000
H     2.108000000    -3.293000000    -5.806000000
O    -0.850000000    -3.964000000    -5.869000000
H    -0.817000000    -4.917000000    -5.958000000
H    -0.140000000    -3.755000000    -5.264000000
O     2.149000000    -2.683000000     3.387000000
H     1.473000000    -2.654000000     2.709000000
H     2.889000000    -3.124000000     2.969000000
O    -4.068000000    -2.676000000    -0.573000000
H    -3.655000000    -2.335000000     0.221000000
H    -3.358000000    -2.712000000    -1.215000000
O    -0.778000000    -0.661000000     7.991000000
H    -0.093000000    -1.306000000     7.817000000
H    -0.382000000     0.178000000     7.755000000
O    -4.989000000     1.526000000    -2.706000000
H    -5.942000000     1.598000000    -2.659000000
H    -4.672000000     2.406000000    -2.504000000
O     0.109000000    -2.658000000     1.497000000
H    -0.495000000    -3.304000000     1.132000000
H     0.002000000    -1.888000000     0.939000000
O    -3.116000000     0.413000000     6.568000000
H    -2.387000000    -0.186000000     6.727000000
H    -3.709000000    -0.077000000     5.998000000
O     1.083000000     2.602000000    -1.288000000
H     0.984000000     1.660000000    -1.151000000
H     1.343000000     2.685000000    -2.206000000
O    -3.617000000    -2.921000000    -5.352000000
H    -4.110000000    -3.419000000    -6.005000000
H    -2.710000000    -2.961000000    -5.656000000
O     0.816000000    -1.729000000     5.504000000
H     0.891000000    -2.260000000     4.711000000
H     1.498000000    -1.064000000     5.412000000
O    -3.644000000    -5.429000000    -3.648000000
H    -3.992000000    -5.009000000    -2.861000000
H    -3.304000000    -4.706000000    -4.175000000
O    -2.035000000    -2.423000000     5.688000000
H    -2.180000000    -1.809000000     4.968000000
H    -1.089000000    -2.571000000     5.690000000
O     4.092000000     3.981000000     4.144000000
H     4.185000000     4.620000000     4.851000000
H     3.147000000     3.914000000     4.006000000
O    -2.202000000    -3.009000000    -2.714000000
H    -1.288000000    -3.275000000    -2.607000000
H    -2.187000000    -2.391000000    -3.444000000
O     0.394000000    -3.810000000    -2.594000000
H     0.714000000    -3.180000000    -3.240000000
H     0.897000000    -4.606000000    -2.766000000
O     1.229000000    -1.787000000    -4.787000000
H     1.964000000    -1.361000000    -4.347000000
H     0.921000000    -1.140000000    -5.422000000
O     1.964000000     2.592000000    -4.007000000
H     2.065000000     3.103000000    -4.810000000
H     2.326000000     1.733000000    -4.223000000
O     4.203000000    -0.931000000     3.432000000
H     3.987000000    -0.024000000     3.216000000
H     3.354000000    -1.368000000     3.508000000
O    -1.138000000    -4.674000000    -0.092000000
H    -0.827000000    -4.077000000    -0.773000000
H    -1.960000000    -5.024000000    -0.438000000
O     3.666000000     2.615000000    -0.594000000
H     3.648000000     2.304000000     0.311000000
H     2.749000000     2.793000000    -0.804000000
O     3.374000000    -0.353000000    -4.531000000
H     3.850000000    -0.011000000    -3.774000000
H     3.942000000    -0.162000000    -5.278000000
O     4.299000000    -3.317000000    -3.525000000
H     3.654000000    -3.884000000    -3.949000000
H     4.422000000    -2.593000000    -4.139000000
O     6.370000000    -0.726000000    -0.474000000
H     6.391000000    -0.074000000     0.227000000
H     7.203000000    -0.612000000    -0.932000000
O    -1.520000000    -0.836000000    -4.570000000
H    -1.686000000     0.032000000    -4.202000000
H    -0.949000000    -0.673000000    -5.320000000
O     1.190000000     4.950000000     0.019000000
H     0.997000000     4.111000000    -0.398000000
H     0.989000000     4.809000000     0.944000000
O    -3.073000000    -2.287000000     1.898000000
H    -3.856000000    -1.856000000     2.242000000
H    -2.344000000    -1.798000000     2.279000000
O     0.227000000     2.237000000     7.473000000
H     0.129000000     2.436000000     8.404000000
H     0.795000000     2.931000000     7.138000000
O     0.008000000    -0.021000000    -6.731000000
H     0.728000000     0.092000000    -7.352000000
H    -0.518000000     0.773000000    -6.829000000
O    -5.669000000    -1.042000000    -4.149000000
H    -4.853000000    -1.357000000    -4.536000000
H    -5.398000000    -0.341000000    -3.556000000
O     2.150000000     0.874000000     5.964000000
H     1.432000000     1.390000000     6.330000000
H     2.100000000     1.030000000     5.021000000
