158
-3065.76956
C     0.682000000    -0.809000000     0.989000000
H     1.321000000    -1.538000000     1.481000000
C     0.735000000    -0.973000000    -0.414000000
H     1.259000000    -1.769000000    -0.937000000
C    -0.016000000    -0.156000000    -1.248000000
H    -0.113000000    -0.386000000    -2.287000000
C    -0.721000000     0.910000000    -0.645000000
H    -1.304000000     1.584000000    -1.266000000
C    -0.598000000     1.123000000     0.765000000
H    -1.066000000     2.002000000     1.201000000
C     0.058000000     0.240000000     1.624000000
C     0.113000000     0.342000000     3.120000000
O     0.803000000    -0.457000000     3.771000000
O    -0.527000000     1.247000000     3.699000000
O     4.153000000    -2.535000000     1.662000000
H     3.826000000    -1.738000000     2.081000000
H     4.340000000    -2.272000000     0.761000000
O    -4.870000000     1.971000000     3.393000000
H    -5.670000000     2.037000000     3.916000000
H    -4.407000000     1.218000000     3.759000000
O     3.747000000    -1.919000000    -5.953000000
H     2.858000000    -2.148000000    -6.222000000
H     4.277000000    -2.674000000    -6.209000000
O    -4.688000000     1.264000000    -1.643000000
H    -4.509000000     0.330000000    -1.759000000
H    -4.671000000     1.395000000    -0.695000000
O    -5.406000000     0.576000000     1.219000000
H    -4.852000000    -0.195000000     1.345000000
H    -5.392000000     1.022000000     2.066000000
O     4.778000000     1.101000000    -1.040000000
H     4.000000000     1.650000000    -0.941000000
H     5.268000000     1.232000000    -0.228000000
O    -3.731000000     2.758000000    -3.677000000
H    -4.071000000     2.331000000    -2.891000000
H    -2.861000000     2.377000000    -3.800000000
O     2.276000000    -3.823000000     0.081000000
H     2.921000000    -3.430000000     0.668000000
H     1.495000000    -3.936000000     0.623000000
O    -2.336000000     4.324000000    -5.588000000
H    -2.742000000     3.792000000    -4.904000000
H    -1.477000000     4.554000000    -5.234000000
O     2.566000000    -3.729000000     5.944000000
H     2.760000000    -4.637000000     5.712000000
H     3.296000000    -3.228000000     5.580000000
O     2.245000000     1.759000000    -0.573000000
H     1.747000000     1.009000000    -0.250000000
H     1.881000000     2.509000000    -0.102000000
O     4.335000000    -2.118000000     5.007000000
H     4.668000000    -1.266000000     5.291000000
H     3.866000000    -1.933000000     4.194000000
O     3.922000000    -5.933000000    -0.446000000
H     4.535000000    -5.736000000    -1.154000000
H     3.369000000    -5.154000000    -0.384000000
O    -3.013000000     6.010000000     1.985000000
H    -3.840000000     5.538000000     2.081000000
H    -3.163000000     6.607000000     1.251000000
O    -0.230000000     3.517000000     5.091000000
H    -0.168000000     4.213000000     4.438000000
H    -0.560000000     2.761000000     4.605000000
O     3.469000000    -0.228000000     2.858000000
H     2.531000000    -0.416000000     2.856000000
H     3.543000000     0.613000000     3.309000000
O     3.167000000     0.493000000    -3.400000000
H     2.933000000     1.009000000    -2.628000000
H     3.794000000    -0.152000000    -3.075000000
O    -4.354000000    -1.664000000    -5.314000000
H    -3.791000000    -1.172000000    -4.717000000
H    -4.506000000    -1.068000000    -6.047000000
O     1.059000000     3.469000000     1.797000000
H     1.696000000     3.854000000     2.399000000
H     0.611000000     2.801000000     2.316000000
O    -1.623000000     5.230000000    -0.828000000
H    -0.775000000     5.181000000    -0.387000000
H    -2.258000000     5.323000000    -0.118000000
O     0.079000000    -4.213000000     1.471000000
H     0.365000000    -5.115000000     1.618000000
H    -0.340000000    -3.957000000     2.293000000
O     4.542000000    -1.903000000    -0.838000000
H     4.631000000    -2.526000000    -1.559000000
H     4.639000000    -1.044000000    -1.250000000
O     2.241000000     1.083000000    -6.009000000
H     3.014000000     1.581000000    -6.276000000
H     2.402000000     0.865000000    -5.090000000
O    -2.143000000    -2.405000000     0.439000000
H    -1.423000000    -1.782000000     0.534000000
H    -2.106000000    -2.937000000     1.234000000
O    -0.982000000     1.919000000    -3.917000000
H    -0.432000000     1.626000000    -4.643000000
H    -0.445000000     2.563000000    -3.455000000
O    -3.497000000     4.309000000     5.441000000
H    -3.832000000     3.504000000     5.048000000
H    -2.560000000     4.298000000     5.249000000
O    -2.831000000     0.064000000     4.679000000
H    -2.948000000     0.284000000     5.604000000
H    -2.099000000     0.611000000     4.394000000
O    -1.842000000    -2.186000000     7.203000000
H    -1.214000000    -2.627000000     6.630000000
H    -1.879000000    -1.289000000     6.871000000
O    -3.677000000    -1.354000000    -1.332000000
H    -3.228000000    -1.704000000    -0.562000000
H    -3.003000000    -1.330000000    -2.012000000
O    -2.240000000    -0.695000000    -3.517000000
H    -1.378000000    -1.008000000    -3.791000000
H    -2.137000000     0.253000000    -3.435000000
O    -0.688000000    -4.976000000    -1.341000000
H    -0.575000000    -4.913000000    -0.392000000
H    -1.572000000    -4.644000000    -1.499000000
O     1.312000000     5.150000000    -1.029000000
H     1.470000000     5.798000000    -0.343000000
H     2.094000000     4.599000000    -1.023000000
O     0.199000000    -2.708000000     5.187000000
H     0.481000000    -1.958000000     4.663000000
H     0.990000000    -2.991000000     5.645000000
O     3.479000000     3.339000000    -4.138000000
H     3.435000000     2.392000000    -4.004000000
H     4.057000000     3.653000000    -3.442000000
O    -5.231000000     4.519000000     2.379000000
H    -5.044000000     3.619000000     2.646000000
H    -5.614000000     4.436000000     1.506000000
O    -0.882000000     5.454000000     3.238000000
H    -1.687000000     5.573000000     2.733000000
H    -1.037000000     5.933000000     4.052000000
O    -1.909000000    -3.138000000     3.560000000
H    -1.167000000    -2.886000000     4.110000000
H    -2.611000000    -3.333000000     4.180000000
O     5.057000000    -2.377000000    -3.436000000
H     4.460000000    -2.419000000    -4.183000000
H     5.930000000    -2.433000000    -3.824000000
O    -0.192000000    -1.847000000    -4.877000000
H    -0.112000000    -2.230000000    -5.750000000
H     0.482000000    -2.287000000    -4.359000000
O     1.010000000    -3.394000000    -2.777000000
H     0.230000000    -3.707000000    -2.321000000
H     1.728000000    -3.560000000    -2.166000000
O    -2.669000000     1.819000000    -7.200000000
H    -1.988000000     1.306000000    -6.764000000
H    -2.574000000     2.700000000    -6.837000000
O    -1.543000000     1.154000000     6.784000000
H    -1.633000000     1.610000000     7.620000000
H    -1.181000000     1.812000000     6.190000000
O    -0.471000000     4.811000000    -3.314000000
H     0.365000000     5.246000000    -3.143000000
H    -1.048000000     5.118000000    -2.614000000
O    -4.414000000    -1.644000000     2.569000000
H    -4.682000000    -2.279000000     3.232000000
H    -3.604000000    -1.267000000     2.911000000
O     1.838000000     3.429000000     6.756000000
H     2.078000000     2.549000000     6.464000000
H     1.228000000     3.744000000     6.089000000
O    -0.576000000     0.301000000    -6.587000000
H    -0.708000000    -0.428000000    -5.980000000
H     0.373000000     0.428000000    -6.605000000
O    -3.017000000    -4.176000000    -4.944000000
H    -2.198000000    -4.158000000    -5.440000000
H    -3.381000000    -3.297000000    -5.052000000
O     1.403000000     0.885000000     6.091000000
H     1.258000000     0.627000000     5.181000000
H     0.650000000     0.530000000     6.563000000
