158
-3031.48814
C     1.108000000     0.427000000     0.839000000
H     1.990000000     0.795000000     1.357000000
C     1.201000000     0.077000000    -0.553000000
H     2.178000000     0.148000000    -1.025000000
C     0.030000000    -0.302000000    -1.196000000
H     0.025000000    -0.632000000    -2.213000000
C    -1.169000000    -0.287000000    -0.487000000
H    -2.075000000    -0.431000000    -1.070000000
C    -1.244000000     0.122000000     0.817000000
H    -2.212000000     0.218000000     1.303000000
C    -0.063000000     0.325000000     1.584000000
C    -0.074000000     0.831000000     2.983000000
O     0.889000000     1.322000000     3.466000000
O    -1.088000000     0.774000000     3.593000000
O    -3.725000000     0.255000000    -3.146000000
H    -3.502000000     1.002000000    -3.703000000
H    -3.301000000    -0.493000000    -3.568000000
O     0.227000000     2.249000000     5.892000000
H    -0.307000000     2.991000000     5.609000000
H     0.333000000     1.715000000     5.105000000
O     0.049000000     3.167000000    -0.615000000
H    -0.135000000     2.303000000    -0.246000000
H     0.878000000     3.427000000    -0.213000000
O     1.011000000    -5.415000000    -0.518000000
H     0.961000000    -4.463000000    -0.436000000
H     0.211000000    -5.734000000    -0.100000000
O     0.980000000     3.964000000    -3.334000000
H     0.778000000     3.656000000    -2.450000000
H     1.633000000     4.652000000    -3.204000000
O    -4.384000000     2.898000000    -1.608000000
H    -3.532000000     3.274000000    -1.832000000
H    -4.270000000     1.956000000    -1.733000000
O    -7.266000000     1.337000000     0.151000000
H    -6.584000000     1.002000000    -0.432000000
H    -7.297000000     0.707000000     0.871000000
O     5.823000000    -1.916000000    -2.809000000
H     6.460000000    -2.630000000    -2.792000000
H     5.181000000    -2.152000000    -2.139000000
O    -2.843000000    -1.870000000    -4.670000000
H    -3.191000000    -1.862000000    -5.562000000
H    -2.002000000    -2.321000000    -4.744000000
O    -1.928000000     4.382000000     6.832000000
H    -2.149000000     3.821000000     6.089000000
H    -2.055000000     5.273000000     6.505000000
O     2.905000000     3.712000000    -0.064000000
H     3.208000000     2.805000000    -0.112000000
H     2.743000000     3.861000000     0.867000000
O     3.156000000    -0.015000000     3.485000000
H     3.392000000    -0.600000000     4.205000000
H     2.391000000     0.464000000     3.806000000
O     5.547000000     0.059000000     1.950000000
H     4.629000000    -0.065000000     2.189000000
H     5.958000000     0.401000000     2.743000000
O    -5.646000000    -2.684000000    -3.862000000
H    -5.088000000    -1.911000000    -3.778000000
H    -5.457000000    -3.022000000    -4.737000000
O     4.273000000    -2.584000000    -4.843000000
H     4.528000000    -2.045000000    -5.592000000
H     4.856000000    -2.303000000    -4.138000000
O     2.441000000     3.280000000     2.766000000
H     2.042000000     3.941000000     3.332000000
H     1.834000000     2.541000000     2.797000000
O     2.663000000     1.915000000     7.405000000
H     3.407000000     2.477000000     7.186000000
H     1.934000000     2.277000000     6.902000000
O    -5.296000000     3.990000000     0.790000000
H    -5.501000000     3.590000000    -0.055000000
H    -4.878000000     3.290000000     1.291000000
O     0.731000000     2.138000000    -7.203000000
H     0.182000000     1.450000000    -7.578000000
H     0.474000000     2.174000000    -6.281000000
O     0.590000000    -2.851000000     0.598000000
H     0.547000000    -1.962000000     0.246000000
H    -0.210000000    -2.942000000     1.117000000
O    -2.720000000     2.203000000    -5.650000000
H    -2.398000000     2.253000000    -6.549000000
H    -1.929000000     2.195000000    -5.111000000
O     4.134000000    -1.763000000    -0.595000000
H     3.283000000    -2.050000000    -0.926000000
H     3.931000000    -1.019000000    -0.028000000
O    -5.136000000    -0.030000000    -0.833000000
H    -5.253000000    -0.974000000    -0.724000000
H    -4.461000000     0.051000000    -1.507000000
O    -5.157000000     0.051000000     3.169000000
H    -6.013000000     0.023000000     2.740000000
H    -4.941000000    -0.867000000     3.331000000
O     4.165000000     5.426000000     2.675000000
H     3.728000000     4.576000000     2.729000000
H     5.042000000     5.224000000     2.347000000
O     1.720000000     0.310000000    -3.897000000
H     2.492000000     0.652000000    -3.446000000
H     2.058000000    -0.392000000    -4.453000000
O     0.496000000    -0.389000000     6.645000000
H     0.554000000     0.548000000     6.454000000
H    -0.294000000    -0.678000000     6.188000000
O    -3.193000000    -5.229000000    -4.828000000
H    -3.497000000    -4.327000000    -4.936000000
H    -3.116000000    -5.564000000    -5.722000000
O    -2.659000000    -5.056000000     2.969000000
H    -3.610000000    -4.958000000     3.011000000
H    -2.320000000    -4.171000000     3.106000000
O    -2.300000000    -0.923000000     5.110000000
H    -3.209000000    -0.678000000     5.283000000
H    -1.922000000    -0.156000000     4.681000000
O     1.476000000    -2.442000000     3.396000000
H     2.004000000    -2.535000000     4.188000000
H     2.101000000    -2.181000000     2.720000000
O     4.691000000     1.469000000    -0.241000000
H     5.108000000     0.952000000     0.448000000
H     5.303000000     2.185000000    -0.407000000
O     2.210000000    -4.423000000    -5.326000000
H     2.104000000    -4.832000000    -4.467000000
H     2.700000000    -3.620000000    -5.150000000
O    -4.509000000     0.368000000     5.914000000
H    -4.709000000     0.577000000     5.002000000
H    -4.674000000     1.183000000     6.388000000
O    -6.373000000     2.237000000    -3.133000000
H    -5.591000000     2.476000000    -2.634000000
H    -6.041000000     1.996000000    -3.998000000
O     4.533000000     3.442000000    -4.089000000
H     4.383000000     2.505000000    -3.965000000
H     4.464000000     3.573000000    -5.034000000
O     0.039000000     4.638000000     4.249000000
H     0.220000000     5.490000000     3.852000000
H    -0.857000000     4.435000000     3.982000000
O     1.332000000     5.590000000     6.867000000
H     0.840000000     5.015000000     6.281000000
H     2.146000000     5.772000000     6.396000000
O    -1.171000000    -2.747000000     3.171000000
H    -0.216000000    -2.725000000     3.227000000
H    -1.455000000    -1.939000000     3.598000000
O     4.272000000     0.678000000    -3.034000000
H     3.971000000     0.892000000    -2.151000000
H     4.912000000    -0.023000000    -2.906000000
O    -2.500000000     2.637000000     4.654000000
H    -3.370000000     2.715000000     4.262000000
H    -2.095000000     1.902000000     4.194000000
O    -0.259000000     2.212000000    -4.730000000
H     0.122000000     1.435000000    -4.322000000
H     0.105000000     2.946000000    -4.234000000
O    -2.255000000     4.011000000    -3.141000000
H    -2.702000000     4.580000000    -3.768000000
H    -1.340000000     4.016000000    -3.425000000
O    -3.024000000    -3.454000000     6.115000000
H    -2.744000000    -2.757000000     5.522000000
H    -2.224000000    -3.719000000     6.568000000
O    -4.785000000    -2.674000000     3.804000000
H    -5.719000000    -2.884000000     3.816000000
H    -4.471000000    -2.932000000     4.671000000
O    -6.212000000    -2.615000000    -0.284000000
H    -6.478000000    -3.118000000    -1.054000000
H    -5.825000000    -3.265000000     0.303000000
O    -0.549000000    -3.165000000    -5.363000000
H    -0.128000000    -3.275000000    -6.215000000
H    -0.392000000    -3.993000000    -4.909000000
O     2.672000000    -1.981000000     6.043000000
H     2.059000000    -1.276000000     6.254000000
H     3.322000000    -1.952000000     6.744000000
