158
-3046.14539
C     1.265000000     0.769000000     0.334000000
H     2.065000000     1.491000000     0.473000000
C     0.886000000     0.330000000    -0.930000000
H     1.370000000     0.697000000    -1.831000000
C    -0.228000000    -0.471000000    -1.143000000
H    -0.402000000    -0.833000000    -2.183000000
C    -0.958000000    -0.795000000    -0.023000000
H    -1.878000000    -1.363000000    -0.132000000
C    -0.603000000    -0.323000000     1.251000000
H    -1.201000000    -0.706000000     2.074000000
C     0.531000000     0.445000000     1.487000000
C     0.725000000     1.028000000     2.854000000
O     1.539000000     1.917000000     3.045000000
O    -0.056000000     0.737000000     3.704000000
O    -2.530000000     0.869000000    -3.845000000
H    -1.620000000     1.165000000    -3.877000000
H    -2.868000000     1.039000000    -4.724000000
O    -5.516000000     0.290000000     3.820000000
H    -5.687000000     0.445000000     4.749000000
H    -4.854000000     0.941000000     3.586000000
O     3.739000000     6.335000000     3.246000000
H     3.406000000     5.517000000     2.876000000
H     4.296000000     6.700000000     2.558000000
O     3.359000000     1.962000000     4.977000000
H     3.317000000     2.877000000     5.256000000
H     2.856000000     1.937000000     4.163000000
O    -0.044000000     5.369000000     1.004000000
H    -0.495000000     4.633000000     0.591000000
H    -0.263000000     5.293000000     1.933000000
O     1.541000000    -3.749000000    -2.395000000
H     1.313000000    -3.221000000    -1.630000000
H     1.147000000    -4.604000000    -2.221000000
O     2.377000000     4.533000000    -1.521000000
H     3.126000000     4.186000000    -1.036000000
H     1.695000000     4.649000000    -0.860000000
O    -1.067000000     2.875000000    -0.677000000
H    -0.937000000     3.562000000    -1.331000000
H    -0.729000000     2.082000000    -1.093000000
O    -2.191000000    -2.094000000    -5.734000000
H    -2.285000000    -1.406000000    -6.392000000
H    -1.301000000    -1.987000000    -5.400000000
O    -0.189000000     4.038000000     7.490000000
H     0.307000000     3.566000000     6.821000000
H    -1.094000000     4.015000000     7.178000000
O     4.970000000     3.860000000     0.056000000
H     5.759000000     3.317000000     0.056000000
H     4.732000000     3.935000000     0.980000000
O     4.878000000     0.043000000     2.417000000
H     4.395000000    -0.050000000     3.239000000
H     4.548000000    -0.665000000     1.864000000
O    -4.488000000    -2.419000000    -4.116000000
H    -3.907000000    -2.291000000    -4.865000000
H    -4.778000000    -1.536000000    -3.885000000
O     2.401000000     4.584000000     1.864000000
H     1.518000000     4.856000000     1.615000000
H     2.281000000     3.726000000     2.272000000
O     4.890000000     1.262000000     7.197000000
H     4.312000000     1.402000000     6.447000000
H     4.744000000     2.024000000     7.758000000
O     0.268000000     1.041000000    -6.836000000
H    -0.440000000     0.566000000    -7.271000000
H     0.509000000     1.731000000    -7.454000000
O    -3.350000000     2.547000000     0.966000000
H    -2.528000000     2.623000000     0.481000000
H    -4.031000000     2.673000000     0.305000000
O     0.815000000    -3.386000000     0.391000000
H     0.043000000    -2.920000000     0.712000000
H     0.562000000    -4.309000000     0.412000000
O     0.012000000     1.584000000    -4.295000000
H     0.151000000     1.371000000    -5.218000000
H     0.891000000     1.582000000    -3.915000000
O     3.204000000    -2.280000000     1.015000000
H     2.379000000    -2.480000000     0.573000000
H     3.378000000    -3.050000000     1.557000000
O    -2.364000000    -4.832000000    -6.442000000
H    -2.667000000    -3.932000000    -6.563000000
H    -1.512000000    -4.742000000    -6.015000000
O     4.297000000    -4.374000000    -1.370000000
H     3.635000000    -3.930000000    -1.899000000
H     4.766000000    -4.931000000    -1.991000000
O    -5.915000000    -3.725000000    -2.035000000
H    -5.700000000    -4.555000000    -1.609000000
H    -5.089000000    -3.434000000    -2.422000000
O    -5.072000000    -0.226000000    -2.913000000
H    -5.029000000    -0.468000000    -1.988000000
H    -4.170000000    -0.007000000    -3.146000000
O     3.399000000    -3.277000000    -4.754000000
H     3.304000000    -4.125000000    -5.189000000
H     2.780000000    -3.312000000    -4.025000000
O    -2.903000000     1.873000000     3.475000000
H    -2.093000000     1.366000000     3.421000000
H    -3.056000000     2.177000000     2.580000000
O     4.789000000     1.494000000    -3.632000000
H     5.278000000     1.523000000    -2.809000000
H     4.725000000     0.562000000    -3.840000000
O    -0.559000000    -4.742000000    -4.522000000
H     0.134000000    -4.848000000    -3.871000000
H    -0.773000000    -3.809000000    -4.495000000
O    -1.035000000    -3.322000000     2.408000000
H    -1.622000000    -3.087000000     3.127000000
H    -0.195000000    -2.929000000     2.646000000
O     0.027000000     1.327000000     6.326000000
H    -0.725000000     1.869000000     6.088000000
H     0.195000000     0.795000000     5.547000000
O    -2.513000000     3.394000000    -5.745000000
H    -2.006000000     3.344000000    -4.934000000
H    -2.114000000     4.115000000    -6.232000000
O     1.344000000    -2.670000000     3.496000000
H     1.791000000    -1.870000000     3.772000000
H     2.051000000    -3.289000000     3.314000000
O     5.027000000    -1.013000000    -4.471000000
H     4.233000000    -1.540000000    -4.555000000
H     5.682000000    -1.619000000    -4.124000000
O    -2.564000000     3.871000000     5.354000000
H    -2.777000000     3.121000000     4.799000000
H    -3.401000000     4.314000000     5.490000000
O    -5.553000000     2.694000000    -4.410000000
H    -5.042000000     2.091000000    -3.870000000
H    -5.230000000     2.553000000    -5.299000000
O     0.313000000     7.107000000     4.194000000
H     0.569000000     7.360000000     3.307000000
H     0.256000000     6.152000000     4.163000000
O    -1.457000000    -5.506000000    -0.539000000
H    -2.037000000    -4.744000000    -0.548000000
H    -1.974000000    -6.196000000    -0.124000000
O     2.365000000     4.443000000     5.495000000
H     2.284000000     5.019000000     6.255000000
H     1.889000000     4.896000000     4.799000000
O    -1.260000000    -1.551000000     4.698000000
H    -0.606000000    -2.198000000     4.961000000
H    -0.776000000    -0.925000000     4.159000000
O     6.217000000     0.657000000    -1.401000000
H     6.420000000     1.212000000    -0.648000000
H     5.896000000    -0.159000000    -1.017000000
O    -1.601000000    -6.125000000     2.898000000
H    -1.436000000    -5.262000000     2.518000000
H    -1.228000000    -6.073000000     3.779000000
O     0.053000000     4.264000000     3.673000000
H    -0.548000000     3.849000000     4.293000000
H     0.749000000     3.620000000     3.545000000
O     2.413000000     2.907000000    -3.707000000
H     3.281000000     2.513000000    -3.621000000
H     2.397000000     3.597000000    -3.044000000
O    -0.555000000     4.051000000    -3.073000000
H    -0.199000000     4.766000000    -3.600000000
H    -0.073000000     3.276000000    -3.362000000
O     0.790000000    -1.405000000     7.762000000
H     0.423000000    -0.733000000     7.187000000
H     0.500000000    -1.154000000     8.639000000
O    -3.465000000    -3.696000000     0.786000000
H    -3.031000000    -3.321000000     1.553000000
H    -4.396000000    -3.676000000     1.004000000
O     0.922000000    -1.841000000    -5.867000000
H     1.480000000    -2.604000000    -6.015000000
H     1.480000000    -1.092000000    -6.077000000
O     3.238000000    -0.768000000     4.633000000
H     3.186000000    -1.104000000     5.527000000
H     3.008000000     0.158000000     4.711000000
