158
-3031.47237
C     1.269000000     0.824000000    -0.044000000
H     2.286000000     1.206000000    -0.076000000
C     1.020000000    -0.365000000    -0.736000000
H     1.779000000    -0.805000000    -1.378000000
C    -0.210000000    -0.990000000    -0.644000000
H    -0.161000000    -1.922000000    -1.270000000
C    -1.162000000    -0.507000000     0.205000000
H    -2.089000000    -1.052000000     0.361000000
C    -0.952000000     0.674000000     0.839000000
H    -1.768000000     1.080000000     1.432000000
C     0.251000000     1.391000000     0.725000000
C     0.483000000     2.628000000     1.568000000
O     1.419000000     3.314000000     1.233000000
O    -0.257000000     2.916000000     2.515000000
O     2.970000000    -2.505000000    -2.890000000
H     2.176000000    -2.029000000    -3.136000000
H     3.562000000    -1.828000000    -2.561000000
O    -1.065000000     0.801000000     3.933000000
H    -0.284000000     0.529000000     4.414000000
H    -0.776000000     1.549000000     3.410000000
O     5.352000000    -4.288000000     0.656000000
H     5.405000000    -3.564000000     1.279000000
H     4.458000000    -4.245000000     0.314000000
O    -2.178000000     4.481000000     3.396000000
H    -1.509000000     3.913000000     3.014000000
H    -1.788000000     5.354000000     3.381000000
O    -1.709000000    -5.418000000    -0.818000000
H    -2.535000000    -5.616000000    -1.259000000
H    -1.426000000    -4.588000000    -1.201000000
O    -0.199000000     4.753000000     5.909000000
H    -0.471000000     3.841000000     5.807000000
H     0.743000000     4.705000000     6.073000000
O     2.008000000     4.863000000    -0.784000000
H     1.365000000     5.571000000    -0.799000000
H     1.849000000     4.412000000     0.045000000
O     0.978000000     2.699000000    -2.716000000
H     0.816000000     3.363000000    -2.046000000
H     1.902000000     2.472000000    -2.611000000
O     3.507000000     2.139000000    -2.355000000
H     3.926000000     2.999000000    -2.313000000
H     4.236000000     1.521000000    -2.419000000
O    -2.223000000     1.614000000    -2.375000000
H    -1.392000000     1.775000000    -2.823000000
H    -2.051000000     0.856000000    -1.816000000
O     4.060000000     6.436000000     0.209000000
H     3.199000000     6.383000000    -0.207000000
H     3.916000000     6.115000000     1.099000000
O     6.221000000    -0.705000000     2.622000000
H     6.382000000    -1.452000000     3.197000000
H     5.386000000    -0.905000000     2.198000000
O    -3.039000000    -1.953000000     3.182000000
H    -3.705000000    -2.309000000     2.593000000
H    -2.877000000    -1.069000000     2.853000000
O    -5.985000000     1.985000000     0.272000000
H    -5.638000000     1.443000000    -0.437000000
H    -5.281000000     2.012000000     0.919000000
O    -1.172000000    -0.048000000    -5.357000000
H    -2.009000000     0.278000000    -5.688000000
H    -0.538000000     0.624000000    -5.609000000
O     4.019000000    -2.354000000     2.384000000
H     4.005000000    -2.612000000     3.306000000
H     3.227000000    -1.828000000     2.270000000
O     2.750000000    -4.178000000    -0.456000000
H     2.318000000    -4.965000000    -0.788000000
H     2.706000000    -3.556000000    -1.182000000
O     0.479000000    -5.774000000    -4.683000000
H     1.286000000    -5.460000000    -4.275000000
H     0.732000000    -5.985000000    -5.582000000
O     0.679000000    -1.723000000    -4.330000000
H     0.828000000    -2.172000000    -5.162000000
H     0.009000000    -1.068000000    -4.528000000
O    -1.371000000     2.063000000     6.254000000
H    -1.580000000     1.738000000     5.378000000
H    -0.462000000     1.797000000     6.398000000
O    -4.752000000     0.980000000    -2.012000000
H    -3.923000000     1.450000000    -2.102000000
H    -4.498000000     0.063000000    -1.911000000
O    -1.465000000     5.938000000    -1.051000000
H    -1.654000000     5.829000000    -1.983000000
H    -1.778000000     5.129000000    -0.647000000
O    -2.508000000     3.570000000    -0.348000000
H    -2.290000000     2.751000000    -0.794000000
H    -3.055000000     3.302000000     0.390000000
O    -3.892000000    -1.665000000    -1.645000000
H    -3.166000000    -2.227000000    -1.917000000
H    -4.480000000    -2.250000000    -1.166000000
O     1.136000000     0.162000000     5.339000000
H     1.092000000     0.335000000     6.279000000
H     1.989000000     0.505000000     5.072000000
O    -3.824000000     2.621000000     1.818000000
H    -4.081000000     2.169000000     2.622000000
H    -3.353000000     3.397000000     2.120000000
O     0.628000000    -4.136000000     1.873000000
H     1.260000000    -4.461000000     1.232000000
H     0.884000000    -3.225000000     2.021000000
O     4.120000000     5.001000000    -2.872000000
H     3.476000000     5.319000000    -2.239000000
H     4.300000000     5.757000000    -3.431000000
O    -3.044000000    -6.101000000     1.823000000
H    -3.318000000    -5.514000000     2.527000000
H    -2.964000000    -5.534000000     1.056000000
O    -3.113000000     5.266000000     6.007000000
H    -2.760000000     5.001000000     5.158000000
H    -2.962000000     6.210000000     6.046000000
O     3.853000000     1.115000000     4.803000000
H     3.808000000     1.376000000     3.883000000
H     4.755000000     1.304000000     5.062000000
O     0.337000000    -3.024000000    -6.874000000
H     0.969000000    -2.365000000    -7.160000000
H     0.567000000    -3.810000000    -7.369000000
O     3.590000000     2.215000000     2.481000000
H     3.935000000     2.315000000     1.594000000
H     2.673000000     2.481000000     2.412000000
O     3.065000000     1.000000000    -5.691000000
H     3.380000000     1.904000000    -5.710000000
H     2.121000000     1.078000000    -5.556000000
O     4.128000000     5.560000000     3.163000000
H     4.506000000     4.793000000     3.594000000
H     3.193000000     5.508000000     3.360000000
O    -2.124000000    -2.703000000    -5.926000000
H    -1.211000000    -2.813000000    -6.191000000
H    -2.186000000    -1.788000000    -5.652000000
O     0.966000000    -6.424000000    -0.541000000
H     0.074000000    -6.086000000    -0.460000000
H     0.855000000    -7.370000000    -0.636000000
O    -4.825000000    -4.757000000    -0.105000000
H    -5.744000000    -5.023000000    -0.094000000
H    -4.413000000    -5.341000000    -0.742000000
O    -0.960000000     7.053000000     3.439000000
H    -1.845000000     7.396000000     3.557000000
H    -0.653000000     7.455000000     2.626000000
O     1.300000000    -1.572000000     2.126000000
H     1.367000000    -1.289000000     1.214000000
H     1.030000000    -0.787000000     2.601000000
O    -3.840000000     0.976000000     3.799000000
H    -2.889000000     0.923000000     3.893000000
H    -4.182000000     0.528000000     4.572000000
O    -3.834000000    -5.846000000    -2.630000000
H    -4.324000000    -6.620000000    -2.907000000
H    -3.146000000    -5.750000000    -3.289000000
O     5.773000000     0.349000000    -2.274000000
H     5.982000000    -0.409000000    -1.728000000
H     5.487000000    -0.028000000    -3.107000000
O     2.899000000    -4.839000000    -4.328000000
H     2.871000000    -3.969000000    -3.930000000
H     3.635000000    -4.799000000    -4.939000000
O    -2.130000000    -5.127000000    -4.918000000
H    -2.331000000    -4.318000000    -5.390000000
H    -1.174000000    -5.151000000    -4.881000000
O    -1.916000000    -3.292000000    -2.737000000
H    -1.789000000    -2.569000000    -3.351000000
H    -2.165000000    -4.034000000    -3.288000000
O     1.435000000     5.219000000     3.290000000
H     0.966000000     4.582000000     2.752000000
H     0.757000000     5.619000000     3.835000000
O     5.844000000     2.508000000    -0.321000000
H     6.121000000     2.225000000    -1.193000000
H     6.071000000     3.437000000    -0.287000000
