158
-3021.79663
C     0.725000000     1.237000000    -0.464000000
H     1.312000000     2.067000000    -0.847000000
C     0.911000000    -0.071000000    -0.930000000
H     1.752000000    -0.300000000    -1.580000000
C     0.137000000    -1.137000000    -0.431000000
H     0.370000000    -2.187000000    -0.806000000
C    -0.748000000    -0.866000000     0.595000000
H    -1.368000000    -1.731000000     0.812000000
C    -0.833000000     0.392000000     1.201000000
H    -1.509000000     0.542000000     2.039000000
C    -0.136000000     1.456000000     0.616000000
C    -0.413000000     2.856000000     1.074000000
O     0.092000000     3.777000000     0.489000000
O    -1.197000000     3.070000000     1.947000000
O     3.713000000    -6.951000000    -1.675000000
H     3.263000000    -6.128000000    -1.484000000
H     4.636000000    -6.710000000    -1.743000000
O    -5.074000000    -4.523000000     3.118000000
H    -4.333000000    -3.966000000     2.880000000
H    -5.431000000    -4.819000000     2.280000000
O     3.740000000    -4.389000000    -0.910000000
H     4.684000000    -4.429000000    -1.066000000
H     3.659000000    -4.183000000     0.021000000
O     1.829000000     7.725000000     0.820000000
H     2.617000000     8.263000000     0.745000000
H     1.494000000     7.912000000     1.697000000
O    -1.550000000     5.368000000     3.384000000
H    -2.309000000     5.573000000     2.838000000
H    -1.229000000     4.533000000     3.044000000
O    -1.530000000    -5.011000000    -1.343000000
H    -2.276000000    -5.165000000    -1.923000000
H    -1.138000000    -4.200000000    -1.667000000
O     2.161000000     4.961000000     1.846000000
H     1.472000000     4.431000000     1.445000000
H     1.983000000     5.853000000     1.547000000
O     0.366000000     1.276000000    -3.895000000
H     0.999000000     1.233000000    -3.178000000
H     0.902000000     1.332000000    -4.685000000
O     2.690000000     3.075000000    -2.763000000
H     2.929000000     3.557000000    -1.972000000
H     1.951000000     3.562000000    -3.127000000
O    -2.946000000    -2.546000000     2.770000000
H    -2.954000000    -1.589000000     2.800000000
H    -3.009000000    -2.757000000     1.838000000
O    -2.934000000     5.777000000    -0.514000000
H    -2.596000000     6.661000000    -0.373000000
H    -2.196000000     5.295000000    -0.887000000
O    -2.669000000     1.420000000    -2.073000000
H    -3.394000000     1.181000000    -2.650000000
H    -2.093000000     0.656000000    -2.083000000
O    -0.697000000    -3.847000000     3.804000000
H     0.104000000    -3.371000000     3.584000000
H    -1.391000000    -3.370000000     3.349000000
O    -4.618000000     4.639000000     1.182000000
H    -4.199000000     3.799000000     0.997000000
H    -4.152000000     5.266000000     0.629000000
O     3.807000000    -1.182000000    -3.952000000
H     3.598000000    -1.476000000    -4.838000000
H     3.007000000    -1.344000000    -3.451000000
O    -5.495000000    -0.970000000    -0.556000000
H    -4.895000000    -1.691000000    -0.744000000
H    -5.352000000    -0.774000000     0.371000000
O    -3.069000000     1.154000000     4.706000000
H    -3.003000000     1.208000000     5.660000000
H    -3.375000000     2.020000000     4.438000000
O    -0.968000000     3.749000000    -2.144000000
H    -1.448000000     2.921000000    -2.140000000
H    -0.414000000     3.709000000    -1.364000000
O    -1.071000000    -5.896000000     1.406000000
H    -1.420000000    -5.022000000     1.584000000
H    -1.253000000    -6.042000000     0.478000000
O     2.317000000     3.157000000     5.680000000
H     1.701000000     3.118000000     6.411000000
H     1.767000000     3.084000000     4.899000000
O    -0.806000000    -0.712000000     4.832000000
H    -0.907000000    -1.418000000     5.471000000
H    -1.630000000    -0.229000000     4.876000000
O     3.751000000    -4.667000000     3.456000000
H     4.499000000    -4.626000000     2.860000000
H     3.011000000    -4.897000000     2.894000000
O     0.670000000     5.874000000     4.929000000
H     0.138000000     5.743000000     5.714000000
H     0.135000000     5.524000000     4.216000000
O     0.883000000     4.067000000    -4.485000000
H     0.181000000     3.650000000    -3.986000000
H     0.519000000     4.911000000    -4.752000000
O     1.114000000    -2.728000000     1.925000000
H     0.655000000    -2.008000000     1.491000000
H     2.030000000    -2.451000000     1.945000000
O    -4.920000000     4.050000000     3.784000000
H    -4.694000000     4.807000000     4.324000000
H    -5.007000000     4.405000000     2.899000000
O    -3.842000000    -2.638000000     5.355000000
H    -2.940000000    -2.484000000     5.634000000
H    -3.798000000    -2.657000000     4.399000000
O    -0.184000000     2.345000000     4.248000000
H    -0.571000000     2.485000000     3.384000000
H    -0.690000000     1.624000000     4.623000000
O     2.241000000    -3.389000000    -2.964000000
H     2.760000000    -3.894000000    -2.337000000
H     2.872000000    -3.109000000    -3.627000000
O     4.146000000     4.431000000    -0.275000000
H     4.848000000     4.075000000     0.269000000
H     3.419000000     4.570000000     0.332000000
O     4.629000000     1.833000000    -4.141000000
H     4.423000000     0.901000000    -4.222000000
H     3.906000000     2.194000000    -3.628000000
O    -3.985000000    -2.350000000    -3.045000000
H    -3.055000000    -2.156000000    -3.155000000
H    -4.380000000    -2.115000000    -3.885000000
O    -0.783000000    -7.897000000    -1.648000000
H    -1.096000000    -6.998000000    -1.741000000
H     0.135000000    -7.860000000    -1.915000000
O     1.747000000    -5.402000000     1.697000000
H     1.017000000    -5.937000000     2.010000000
H     1.349000000    -4.559000000     1.480000000
O    -3.437000000    -3.192000000     0.070000000
H    -3.059000000    -3.149000000    -0.808000000
H    -3.913000000    -4.023000000     0.085000000
O     3.461000000    -1.426000000     1.796000000
H     4.215000000    -2.014000000     1.826000000
H     3.653000000    -0.826000000     1.075000000
O    -5.044000000    -0.028000000     1.975000000
H    -4.426000000     0.564000000     1.545000000
H    -5.502000000     0.523000000     2.609000000
O    -3.480000000    -5.673000000    -2.849000000
H    -3.435000000    -6.627000000    -2.795000000
H    -3.110000000    -5.464000000    -3.707000000
O    -1.750000000    -2.725000000    -6.693000000
H    -1.936000000    -1.886000000    -7.114000000
H    -0.998000000    -2.548000000    -6.128000000
O    -0.558000000     6.290000000    -3.103000000
H    -0.144000000     6.303000000    -2.240000000
H    -0.974000000     5.429000000    -3.155000000
O     6.097000000    -1.734000000    -2.587000000
H     6.579000000    -2.485000000    -2.933000000
H     5.315000000    -1.677000000    -3.136000000
O    -1.410000000    -0.768000000    -3.291000000
H    -0.885000000    -1.562000000    -3.191000000
H    -0.789000000    -0.106000000    -3.593000000
O     3.632000000     5.916000000     3.790000000
H     3.209000000     5.578000000     3.000000000
H     3.056000000     5.644000000     4.505000000
O    -0.142000000     6.433000000    -0.497000000
H    -0.442000000     5.822000000     0.176000000
H     0.653000000     6.821000000    -0.132000000
O    -3.346000000     2.193000000     0.633000000
H    -2.864000000     1.869000000    -0.128000000
H    -2.688000000     2.653000000     1.156000000
O     3.990000000    -4.294000000    -4.680000000
H     3.679000000    -5.172000000    -4.899000000
H     4.944000000    -4.371000000    -4.680000000
O     4.772000000     1.008000000     0.226000000
H     5.562000000     0.662000000    -0.191000000
H     4.915000000     1.953000000     0.264000000
O    -0.310000000    -3.381000000    -3.668000000
H     0.647000000    -3.391000000    -3.674000000
H    -0.561000000    -4.152000000    -4.177000000
