158
-3046.80687
C     0.910000000     1.121000000     0.176000000
H     1.681000000     1.887000000     0.221000000
C     1.210000000    -0.035000000    -0.447000000
H     2.123000000    -0.147000000    -1.027000000
C     0.297000000    -1.078000000    -0.518000000
H     0.603000000    -1.968000000    -1.059000000
C    -0.974000000    -1.002000000     0.124000000
H    -1.665000000    -1.839000000     0.179000000
C    -1.297000000     0.280000000     0.643000000
H    -2.273000000     0.357000000     1.115000000
C    -0.335000000     1.332000000     0.731000000
C    -0.658000000     2.672000000     1.417000000
O    -0.115000000     3.699000000     1.132000000
O    -1.591000000     2.741000000     2.153000000
O     3.303000000    -5.662000000    -1.581000000
H     3.898000000    -5.084000000    -1.105000000
H     3.453000000    -6.527000000    -1.200000000
O    -3.387000000    -4.435000000     4.086000000
H    -2.754000000    -4.345000000     4.799000000
H    -3.173000000    -3.722000000     3.484000000
O     3.446000000    -2.568000000    -0.216000000
H     3.576000000    -1.768000000     0.292000000
H     4.152000000    -3.149000000     0.067000000
O     0.586000000     7.663000000     0.670000000
H     1.426000000     7.263000000     0.446000000
H     0.746000000     8.107000000     1.503000000
O    -2.564000000     4.659000000     3.760000000
H    -1.816000000     4.544000000     4.347000000
H    -2.466000000     3.965000000     3.108000000
O    -0.364000000    -7.163000000    -0.195000000
H     0.047000000    -6.482000000     0.337000000
H     0.119000000    -7.146000000    -1.021000000
O     2.068000000     4.759000000     2.305000000
H     1.379000000     4.401000000     1.745000000
H     2.396000000     5.519000000     1.824000000
O    -0.052000000     1.380000000    -5.344000000
H    -0.503000000     1.797000000    -4.610000000
H    -0.547000000     1.654000000    -6.116000000
O     2.495000000     3.970000000    -3.577000000
H     1.783000000     4.136000000    -2.960000000
H     2.130000000     4.198000000    -4.432000000
O     3.326000000     6.667000000     0.590000000
H     3.611000000     6.045000000    -0.080000000
H     4.129000000     7.107000000     0.866000000
O     5.594000000    -4.536000000    -0.168000000
H     6.016000000    -3.686000000    -0.041000000
H     6.096000000    -5.137000000     0.383000000
O     6.356000000    -1.758000000    -0.031000000
H     5.662000000    -1.107000000    -0.134000000
H     6.989000000    -1.544000000    -0.717000000
O    -4.675000000    -3.418000000     0.630000000
H    -5.311000000    -2.897000000     0.140000000
H    -4.433000000    -4.125000000     0.031000000
O    -3.236000000     5.217000000    -1.756000000
H    -3.345000000     4.309000000    -1.472000000
H    -3.013000000     5.693000000    -0.956000000
O     3.618000000     3.349000000    -0.890000000
H     4.418000000     3.851000000    -1.045000000
H     3.686000000     2.600000000    -1.483000000
O    -3.959000000     2.524000000    -1.529000000
H    -4.772000000     2.450000000    -2.029000000
H    -3.473000000     1.728000000    -1.742000000
O     0.179000000    -2.630000000     4.072000000
H    -0.102000000    -2.637000000     3.158000000
H    -0.636000000    -2.624000000     4.574000000
O     5.958000000     2.435000000     1.359000000
H     6.548000000     1.779000000     1.729000000
H     5.435000000     2.733000000     2.103000000
O    -6.635000000     3.742000000     0.790000000
H    -6.094000000     4.173000000     1.452000000
H    -6.094000000     3.020000000     0.472000000
O     3.328000000    -1.415000000    -2.831000000
H     3.196000000    -1.941000000    -3.620000000
H     3.180000000    -2.026000000    -2.109000000
O    -3.932000000     0.897000000    -4.310000000
H    -3.364000000     0.675000000    -3.572000000
H    -3.848000000     0.154000000    -4.908000000
O    -1.068000000     4.034000000     5.945000000
H    -1.107000000     4.157000000     6.894000000
H    -1.055000000     3.085000000     5.827000000
O    -3.206000000     0.938000000     4.536000000
H    -4.156000000     0.836000000     4.590000000
H    -3.061000000     1.399000000     3.710000000
O    -0.967000000     3.335000000    -3.115000000
H    -1.589000000     2.786000000    -2.638000000
H    -0.299000000     3.559000000    -2.467000000
O    -1.000000000    -4.288000000     1.570000000
H    -1.565000000    -4.357000000     0.800000000
H    -1.207000000    -5.065000000     2.090000000
O     1.883000000     2.778000000     5.720000000
H     1.983000000     2.577000000     6.651000000
H     0.999000000     2.481000000     5.504000000
O     0.675000000     5.666000000     4.614000000
H     0.411000000     4.855000000     5.049000000
H     0.779000000     5.422000000     3.695000000
O    -5.196000000     5.088000000     2.727000000
H    -4.785000000     5.872000000     2.362000000
H    -4.861000000     5.036000000     3.622000000
O    -3.749000000    -1.948000000     2.829000000
H    -4.276000000    -1.156000000     2.723000000
H    -3.968000000    -2.485000000     2.067000000
O    -0.695000000     1.396000000     5.293000000
H    -1.578000000     1.033000000     5.218000000
H    -0.457000000     1.635000000     4.397000000
O     1.337000000    -4.182000000    -3.265000000
H     1.863000000    -4.771000000    -2.724000000
H     1.978000000    -3.705000000    -3.792000000
O     0.999000000     3.971000000    -1.339000000
H     1.925000000     3.757000000    -1.223000000
H     0.625000000     3.898000000    -0.461000000
O     3.611000000     1.372000000    -2.668000000
H     3.554000000     0.424000000    -2.788000000
H     3.143000000     1.737000000    -3.418000000
O    -3.969000000    -3.999000000    -3.334000000
H    -3.111000000    -3.616000000    -3.151000000
H    -3.882000000    -4.373000000    -4.211000000
O     4.319000000     3.227000000     3.441000000
H     3.918000000     2.706000000     4.137000000
H     3.611000000     3.786000000     3.122000000
O     1.753000000    -4.761000000     1.218000000
H     0.940000000    -4.425000000     1.594000000
H     2.036000000    -4.079000000     0.608000000
O    -3.092000000     7.685000000     3.996000000
H    -3.657000000     7.574000000     4.761000000
H    -2.882000000     6.792000000     3.721000000
O    -5.384000000     0.173000000     2.665000000
H    -6.082000000     0.080000000     2.017000000
H    -5.202000000     1.113000000     2.688000000
O    -2.544000000    -5.047000000    -0.952000000
H    -2.524000000    -5.842000000    -1.485000000
H    -2.133000000    -4.379000000    -1.501000000
O    -1.450000000    -0.895000000    -4.564000000
H    -0.800000000    -0.372000000    -5.034000000
H    -2.112000000    -1.103000000    -5.224000000
O    -0.774000000    -5.347000000    -5.294000000
H     0.129000000    -5.266000000    -4.988000000
H    -1.216000000    -5.846000000    -4.606000000
O     6.265000000    -2.408000000    -3.350000000
H     6.467000000    -3.340000000    -3.268000000
H     5.318000000    -2.356000000    -3.220000000
O    -2.304000000     0.327000000    -2.347000000
H    -1.801000000     0.273000000    -1.534000000
H    -1.912000000    -0.336000000    -2.915000000
O    -1.956000000     6.014000000     0.697000000
H    -1.554000000     5.214000000     1.035000000
H    -1.320000000     6.703000000     0.892000000
O    -4.087000000     2.332000000     1.336000000
H    -3.946000000     2.512000000     0.407000000
H    -3.215000000     2.392000000     1.727000000
O     3.519000000    -3.033000000    -4.992000000
H     3.586000000    -2.852000000    -5.930000000
H     4.279000000    -3.582000000    -4.800000000
O     4.517000000     0.169000000    -0.024000000
H     3.860000000     0.440000000    -0.665000000
H     4.576000000     0.905000000     0.585000000
O    -1.354000000    -3.121000000    -2.937000000
H    -0.483000000    -3.237000000    -2.558000000
H    -1.234000000    -2.451000000    -3.611000000
