158
-3034.45285
C     0.767000000     1.150000000     0.385000000
H     1.492000000     1.949000000     0.520000000
C     1.214000000     0.089000000    -0.417000000
H     2.151000000     0.146000000    -0.965000000
C     0.363000000    -0.963000000    -0.720000000
H     0.616000000    -1.643000000    -1.534000000
C    -0.896000000    -0.942000000    -0.116000000
H    -1.648000000    -1.717000000    -0.246000000
C    -1.328000000     0.129000000     0.732000000
H    -2.318000000     0.154000000     1.181000000
C    -0.488000000     1.259000000     0.929000000
C    -0.860000000     2.401000000     1.750000000
O    -0.101000000     3.340000000     1.963000000
O    -2.077000000     2.693000000     1.834000000
O     1.591000000    -6.099000000    -2.596000000
H     2.035000000    -6.120000000    -1.748000000
H     1.963000000    -6.836000000    -3.080000000
O    -4.020000000     0.352000000     6.536000000
H    -3.677000000     0.779000000     5.751000000
H    -4.505000000     1.041000000     6.990000000
O    -2.198000000     4.350000000     4.220000000
H    -3.067000000     4.247000000     3.833000000
H    -1.601000000     3.975000000     3.573000000
O    -1.428000000    -5.619000000    -2.184000000
H    -1.262000000    -5.024000000    -2.915000000
H    -0.629000000    -6.142000000    -2.115000000
O     1.864000000     2.890000000     3.752000000
H     1.079000000     3.038000000     3.223000000
H     2.475000000     2.455000000     3.157000000
O    -0.761000000     6.652000000    -0.106000000
H    -0.368000000     6.393000000     0.727000000
H    -1.554000000     6.121000000    -0.172000000
O     1.011000000     0.324000000    -3.393000000
H     1.593000000    -0.429000000    -3.289000000
H     0.960000000     0.710000000    -2.518000000
O     3.256000000     2.900000000    -2.125000000
H     3.388000000     3.065000000    -1.192000000
H     2.451000000     3.371000000    -2.340000000
O    -3.943000000    -3.964000000     2.815000000
H    -3.898000000    -3.192000000     3.380000000
H    -3.229000000    -3.845000000     2.189000000
O    -2.908000000     5.086000000     0.686000000
H    -2.545000000     4.294000000     1.081000000
H    -2.912000000     5.728000000     1.396000000
O    -4.110000000     1.222000000    -1.327000000
H    -4.203000000     1.329000000    -2.274000000
H    -4.622000000     0.440000000    -1.123000000
O     3.819000000    -4.919000000     1.649000000
H     3.610000000    -5.273000000     0.784000000
H     4.577000000    -4.353000000     1.499000000
O     4.181000000    -0.762000000    -6.131000000
H     3.646000000    -0.072000000    -5.739000000
H     4.063000000    -0.650000000    -7.075000000
O    -1.400000000    -5.418000000    -5.310000000
H    -2.146000000    -5.712000000    -5.833000000
H    -0.902000000    -6.216000000    -5.132000000
O    -5.214000000     4.200000000     3.540000000
H    -5.620000000     3.864000000     2.741000000
H    -4.913000000     5.078000000     3.305000000
O     3.412000000    -1.367000000    -3.425000000
H     4.177000000    -1.470000000    -3.991000000
H     2.958000000    -2.208000000    -3.480000000
O    -1.389000000     4.424000000     6.827000000
H    -1.878000000     4.343000000     6.008000000
H    -1.985000000     4.089000000     7.497000000
O    -0.851000000    -0.627000000    -5.331000000
H    -0.611000000    -0.982000000    -6.187000000
H    -0.013000000    -0.432000000    -4.910000000
O    -4.873000000    -1.071000000     0.440000000
H    -4.933000000    -2.026000000     0.476000000
H    -4.079000000    -0.862000000     0.932000000
O     4.145000000    -4.301000000    -1.292000000
H     4.101000000    -3.464000000    -1.755000000
H     5.080000000    -4.506000000    -1.258000000
O    -1.875000000     2.896000000    -1.381000000
H    -2.528000000     2.197000000    -1.349000000
H    -1.816000000     3.210000000    -0.479000000
O    -1.970000000    -5.304000000     0.468000000
H    -1.877000000    -5.457000000    -0.472000000
H    -2.810000000    -4.852000000     0.555000000
O     1.228000000     3.021000000     6.362000000
H     1.349000000     2.965000000     5.414000000
H     0.279000000     3.060000000     6.481000000
O    -2.787000000     1.218000000     4.466000000
H    -1.865000000     1.042000000     4.655000000
H    -2.769000000     1.843000000     3.742000000
O    -7.144000000     0.926000000     0.483000000
H    -7.195000000     1.408000000    -0.343000000
H    -6.206000000     0.827000000     0.644000000
O     2.140000000    -3.654000000     3.467000000
H     2.658000000    -4.306000000     2.994000000
H     1.250000000    -3.767000000     3.133000000
O     0.106000000     6.378000000     5.355000000
H     0.176000000     6.161000000     4.425000000
H    -0.406000000     5.661000000     5.730000000
O     0.536000000     4.264000000    -2.120000000
H    -0.214000000     3.679000000    -2.013000000
H     0.274000000     4.863000000    -2.819000000
O    -1.616000000    -2.093000000     2.967000000
H    -2.393000000    -1.534000000     2.955000000
H    -0.998000000    -1.630000000     3.533000000
O    -0.164000000     0.350000000     4.793000000
H     0.297000000     0.132000000     5.603000000
H     0.242000000    -0.208000000     4.130000000
O     1.986000000    -3.734000000    -3.971000000
H     1.801000000    -4.576000000    -3.554000000
H     2.225000000    -3.959000000    -4.870000000
O     4.097000000     0.446000000     2.685000000
H     5.022000000     0.201000000     2.649000000
H     4.049000000     1.273000000     2.205000000
O     4.800000000     0.665000000    -2.093000000
H     4.491000000    -0.051000000    -2.648000000
H     4.072000000     1.287000000    -2.077000000
O     4.591000000     2.592000000     1.034000000
H     5.304000000     1.961000000     0.931000000
H     5.025000000     3.445000000     1.047000000
O     2.675000000     1.335000000    -5.330000000
H     2.201000000     1.133000000    -4.524000000
H     2.037000000     1.796000000    -5.874000000
O    -4.707000000    -3.795000000    -2.955000000
H    -3.971000000    -3.621000000    -3.542000000
H    -5.455000000    -3.372000000    -3.377000000
O    -0.502000000    -4.490000000     2.544000000
H    -0.977000000    -4.844000000     1.792000000
H    -1.082000000    -3.815000000     2.897000000
O    -4.521000000    -3.636000000    -0.230000000
H    -4.338000000    -3.432000000    -1.147000000
H    -5.374000000    -4.070000000    -0.247000000
O    -2.735000000     6.974000000     2.643000000
H    -2.193000000     7.445000000     3.276000000
H    -3.449000000     7.579000000     2.443000000
O     1.006000000    -1.117000000     2.877000000
H     1.562000000    -1.888000000     2.770000000
H     0.998000000    -0.706000000     2.012000000
O    -4.210000000    -1.517000000     3.958000000
H    -4.065000000    -0.720000000     4.469000000
H    -5.094000000    -1.418000000     3.605000000
O    -3.402000000     6.570000000    -1.348000000
H    -3.335000000     6.017000000    -0.569000000
H    -3.969000000     6.079000000    -1.942000000
O    -5.393000000     3.964000000    -0.496000000
H    -4.782000000     3.895000000     0.238000000
H    -5.679000000     3.064000000    -0.655000000
O    -2.615000000    -3.192000000    -4.573000000
H    -1.972000000    -3.825000000    -4.893000000
H    -2.242000000    -2.339000000    -4.795000000
O     0.617000000     5.897000000     2.316000000
H     0.468000000     4.994000000     2.035000000
H     1.456000000     6.135000000     1.921000000
O    -4.750000000     1.823000000     1.963000000
H    -4.545000000     1.557000000     2.860000000
H    -3.909000000     2.094000000     1.596000000
O     7.174000000     1.798000000    -2.877000000
H     6.826000000     2.275000000    -3.630000000
H     6.398000000     1.471000000    -2.422000000
O     6.703000000     0.385000000    -0.033000000
H     7.430000000    -0.192000000    -0.270000000
H     6.098000000     0.323000000    -0.772000000
