158
-3028.97915
C     0.310000000    -1.271000000     0.653000000
H     0.648000000    -2.190000000     1.126000000
C     0.821000000    -0.876000000    -0.596000000
H     1.623000000    -1.431000000    -1.075000000
C     0.401000000     0.320000000    -1.140000000
H     0.773000000     0.629000000    -2.067000000
C    -0.616000000     1.025000000    -0.480000000
H    -0.891000000     2.004000000    -0.865000000
C    -1.026000000     0.712000000     0.805000000
H    -1.794000000     1.318000000     1.279000000
C    -0.619000000    -0.490000000     1.387000000
C    -1.113000000    -0.916000000     2.730000000
O    -1.805000000    -0.250000000     3.448000000
O    -0.847000000    -2.022000000     3.149000000
O    -1.160000000     4.562000000     1.818000000
H    -1.813000000     4.543000000     1.118000000
H    -1.424000000     3.859000000     2.411000000
O    -6.298000000    -0.656000000     5.054000000
H    -5.397000000    -0.640000000     5.376000000
H    -6.803000000    -0.207000000     5.732000000
O    -0.107000000     1.007000000     4.821000000
H     0.431000000     1.504000000     4.205000000
H    -0.660000000     0.457000000     4.265000000
O    -1.547000000    -1.319000000    -3.488000000
H    -0.831000000    -0.710000000    -3.670000000
H    -1.969000000    -1.453000000    -4.337000000
O     0.097000000     3.505000000    -4.318000000
H    -0.252000000     2.635000000    -4.125000000
H     0.272000000     3.890000000    -3.459000000
O    -3.123000000    -5.968000000     3.197000000
H    -3.497000000    -5.796000000     2.333000000
H    -3.193000000    -5.133000000     3.659000000
O     1.604000000     5.264000000     2.375000000
H     0.734000000     4.992000000     2.084000000
H     2.097000000     5.398000000     1.565000000
O     4.724000000     0.708000000     1.782000000
H     4.135000000     0.158000000     2.299000000
H     5.586000000     0.306000000     1.893000000
O     1.749000000     3.525000000    -1.656000000
H     1.529000000     4.344000000    -1.212000000
H     1.672000000     2.855000000    -0.977000000
O     2.728000000     0.294000000    -7.883000000
H     3.157000000     0.621000000    -8.674000000
H     2.363000000     1.075000000    -7.468000000
O    -0.465000000    -5.423000000     5.127000000
H    -1.174000000    -4.876000000     5.465000000
H    -0.276000000    -5.062000000     4.261000000
O     1.329000000    -6.041000000    -3.807000000
H     0.915000000    -5.315000000    -4.273000000
H     1.678000000    -5.646000000    -3.009000000
O     2.596000000     0.449000000    -4.262000000
H     2.886000000    -0.422000000    -4.531000000
H     3.407000000     0.936000000    -4.113000000
O     0.438000000     2.276000000    -6.753000000
H     0.338000000     2.783000000    -5.948000000
H    -0.018000000     2.791000000    -7.419000000
O     1.982000000     2.314000000     3.330000000
H     2.625000000     2.865000000     3.776000000
H     2.013000000     2.599000000     2.417000000
O    -3.396000000     4.241000000    -3.742000000
H    -3.918000000     4.990000000    -4.030000000
H    -2.653000000     4.630000000    -3.281000000
O    -3.499000000    -0.787000000     5.988000000
H    -3.179000000    -0.449000000     6.824000000
H    -3.205000000    -0.146000000     5.341000000
O    -3.606000000    -2.447000000     1.289000000
H    -2.990000000    -2.718000000     1.970000000
H    -3.059000000    -2.291000000     0.520000000
O     3.798000000    -3.636000000     3.922000000
H     2.968000000    -3.642000000     3.446000000
H     3.828000000    -4.484000000     4.364000000
O     5.752000000    -4.325000000    -0.354000000
H     5.153000000    -5.069000000    -0.292000000
H     5.349000000    -3.745000000    -1.000000000
O    -3.735000000     3.977000000     1.217000000
H    -4.154000000     3.856000000     0.365000000
H    -4.452000000     4.221000000     1.803000000
O    -1.414000000    -4.428000000    -0.528000000
H    -1.647000000    -4.774000000    -1.390000000
H    -2.049000000    -3.729000000    -0.371000000
O     0.841000000    -3.417000000    -4.602000000
H     1.083000000    -2.883000000    -5.359000000
H     0.067000000    -2.983000000    -4.242000000
O     4.289000000    -0.278000000    -0.662000000
H     4.154000000    -0.215000000     0.284000000
H     4.557000000     0.602000000    -0.925000000
O    -0.071000000     0.827000000    -4.530000000
H    -0.286000000     0.940000000    -5.456000000
H     0.856000000     0.587000000    -4.527000000
O    -2.258000000     2.564000000     3.882000000
H    -2.163000000     1.612000000     3.855000000
H    -3.123000000     2.729000000     3.506000000
O     5.143000000     2.892000000    -2.202000000
H     4.699000000     3.537000000    -2.752000000
H     5.289000000     3.346000000    -1.372000000
O     0.979000000    -4.105000000     3.096000000
H     0.330000000    -3.404000000     3.032000000
H     1.019000000    -4.475000000     2.214000000
O    -2.710000000    -3.496000000     4.381000000
H    -1.927000000    -3.096000000     4.001000000
H    -3.017000000    -2.857000000     5.025000000
O     4.256000000    -2.797000000    -2.374000000
H     4.274000000    -1.887000000    -2.079000000
H     4.239000000    -2.739000000    -3.330000000
O     7.332000000     1.661000000    -1.195000000
H     7.828000000     2.476000000    -1.279000000
H     6.480000000     1.858000000    -1.584000000
O     2.648000000    -0.387000000     3.164000000
H     2.392000000     0.516000000     3.355000000
H     2.936000000    -0.738000000     4.007000000
O    -4.953000000    -1.567000000    -2.307000000
H    -4.077000000    -1.736000000    -1.960000000
H    -5.338000000    -2.436000000    -2.419000000
O     0.941000000     5.709000000    -5.608000000
H     1.594000000     5.021000000    -5.741000000
H     0.224000000     5.273000000    -5.148000000
O    -4.540000000     3.140000000    -1.320000000
H    -4.002000000     3.274000000    -2.101000000
H    -4.877000000     2.249000000    -1.412000000
O     3.510000000     4.301000000    -3.656000000
H     3.330000000     5.100000000    -3.159000000
H     2.869000000     3.669000000    -3.333000000
O    -5.915000000    -1.287000000     0.621000000
H    -6.190000000    -1.779000000    -0.152000000
H    -5.096000000    -1.702000000     0.891000000
O     1.213000000    -1.572000000    -6.706000000
H     0.338000000    -1.189000000    -6.758000000
H     1.786000000    -0.915000000    -7.100000000
O     2.483000000     1.822000000     0.613000000
H     3.313000000     1.457000000     0.919000000
H     1.926000000     1.058000000     0.461000000
O     5.562000000     0.494000000    -3.875000000
H     6.280000000     0.916000000    -4.349000000
H     5.178000000     1.196000000    -3.349000000
O    -2.323000000    -1.812000000    -0.983000000
H    -1.893000000    -1.709000000    -1.832000000
H    -1.877000000    -1.188000000    -0.410000000
O    -6.183000000     0.486000000     2.677000000
H    -5.870000000    -0.045000000     1.946000000
H    -6.202000000    -0.116000000     3.420000000
O     0.287000000    -2.162000000     5.879000000
H    -0.223000000    -2.451000000     5.122000000
H     0.363000000    -1.215000000     5.769000000
O     2.723000000    -4.957000000    -1.735000000
H     3.142000000    -4.098000000    -1.786000000
H     3.239000000    -5.510000000    -2.322000000
O     1.024000000    -4.999000000     0.531000000
H     0.162000000    -4.815000000     0.158000000
H     1.542000000    -5.317000000    -0.209000000
O     0.778000000     6.382000000    -1.112000000
H    -0.074000000     6.801000000    -0.995000000
H     1.257000000     6.585000000    -0.308000000
O    -0.412000000     2.405000000     7.228000000
H    -0.376000000     2.033000000     6.347000000
H    -1.296000000     2.204000000     7.536000000
O     1.695000000    -7.095000000     2.516000000
H     0.837000000    -7.390000000     2.821000000
H     1.503000000    -6.357000000     1.937000000
