158
-3015.15245
C     1.026000000     0.814000000    -0.663000000
H     1.696000000     1.359000000    -1.323000000
C     0.615000000    -0.439000000    -1.061000000
H     1.074000000    -0.763000000    -1.991000000
C    -0.432000000    -1.062000000    -0.416000000
H    -0.745000000    -2.011000000    -0.846000000
C    -1.015000000    -0.494000000     0.711000000
H    -1.745000000    -1.036000000     1.307000000
C    -0.481000000     0.691000000     1.184000000
H    -0.914000000     1.157000000     2.066000000
C     0.569000000     1.431000000     0.534000000
C     1.086000000     2.652000000     1.110000000
O     1.973000000     3.165000000     0.457000000
O     0.787000000     3.040000000     2.259000000
O    -5.638000000    -3.418000000    -1.503000000
H    -6.216000000    -2.941000000    -2.098000000
H    -4.966000000    -3.794000000    -2.073000000
O    -1.667000000     6.175000000     4.674000000
H    -1.748000000     5.668000000     3.866000000
H    -2.201000000     6.955000000     4.522000000
O    -1.110000000     2.486000000     6.603000000
H    -0.958000000     1.939000000     7.374000000
H    -0.491000000     2.157000000     5.951000000
O     1.075000000     5.889000000     2.340000000
H     1.060000000     4.931000000     2.333000000
H     0.192000000     6.144000000     2.074000000
O     1.119000000    -2.438000000     1.935000000
H     1.154000000    -1.529000000     1.638000000
H     1.449000000    -2.945000000     1.193000000
O    -1.614000000     4.702000000     2.163000000
H    -2.503000000     4.510000000     2.460000000
H    -1.226000000     3.844000000     1.995000000
O     2.209000000     0.541000000    -5.160000000
H     1.328000000     0.348000000    -4.839000000
H     2.077000000     0.836000000    -6.061000000
O    -3.005000000    -4.523000000     0.807000000
H    -2.258000000    -3.926000000     0.761000000
H    -2.712000000    -5.308000000     0.344000000
O     1.187000000     7.473000000    -0.424000000
H     1.339000000     8.012000000     0.353000000
H     0.633000000     8.015000000    -0.986000000
O    -0.081000000    -3.746000000     3.843000000
H     0.275000000    -3.255000000     3.102000000
H     0.214000000    -3.262000000     4.615000000
O    -2.154000000    -5.520000000     3.907000000
H    -2.158000000    -6.002000000     3.080000000
H    -1.410000000    -4.922000000     3.832000000
O     4.086000000    -1.366000000     0.828000000
H     4.039000000    -0.527000000     0.371000000
H     4.990000000    -1.656000000     0.707000000
O     1.017000000    -0.829000000     4.304000000
H     1.340000000    -1.224000000     5.114000000
H     1.489000000    -1.288000000     3.609000000
O    -2.926000000     6.496000000    -0.129000000
H    -2.653000000     6.447000000    -1.045000000
H    -2.274000000     5.977000000     0.342000000
O     6.164000000    -1.626000000    -2.170000000
H     6.860000000    -1.317000000    -2.750000000
H     5.437000000    -1.024000000    -2.327000000
O     6.533000000     5.069000000     0.951000000
H     6.970000000     4.372000000     0.462000000
H     5.629000000     4.769000000     1.039000000
O    -3.736000000    -3.785000000    -3.464000000
H    -3.372000000    -4.626000000    -3.189000000
H    -4.479000000    -4.016000000    -4.022000000
O     0.193000000     3.694000000    -3.572000000
H    -0.670000000     3.551000000    -3.181000000
H     0.706000000     4.105000000    -2.876000000
O     3.832000000     4.495000000     1.926000000
H     3.107000000     4.016000000     1.525000000
H     3.553000000     5.410000000     1.910000000
O     5.642000000     1.897000000    -4.163000000
H     4.784000000     1.953000000    -3.742000000
H     6.049000000     2.746000000    -3.991000000
O    -2.122000000    -1.324000000    -6.574000000
H    -1.459000000    -1.200000000    -7.254000000
H    -1.621000000    -1.557000000    -5.792000000
O    -5.338000000    -0.271000000     3.084000000
H    -5.682000000    -0.715000000     2.309000000
H    -4.638000000    -0.845000000     3.397000000
O    -0.683000000    -0.149000000    -4.502000000
H    -1.299000000    -0.128000000    -3.769000000
H    -0.803000000     0.694000000    -4.940000000
O    -1.785000000    -0.412000000     5.369000000
H    -1.113000000    -0.274000000     4.701000000
H    -2.140000000     0.461000000     5.535000000
O     3.128000000     6.579000000    -3.723000000
H     2.541000000     6.035000000    -3.199000000
H     2.553000000     7.019000000    -4.349000000
O     2.213000000     3.231000000     6.727000000
H     1.803000000     3.104000000     5.872000000
H     1.838000000     2.544000000     7.278000000
O    -6.166000000    -1.646000000     0.849000000
H    -6.056000000    -2.571000000     1.073000000
H    -5.823000000    -1.574000000    -0.042000000
O     4.115000000     1.645000000     2.175000000
H     4.126000000     1.657000000     1.218000000
H     3.895000000     2.542000000     2.424000000
O     3.144000000     2.428000000    -3.508000000
H     2.422000000     3.044000000    -3.381000000
H     2.813000000     1.800000000    -4.150000000
O     1.937000000    -7.051000000    -1.197000000
H     2.122000000    -6.556000000    -1.996000000
H     2.441000000    -7.859000000    -1.294000000
O    -3.930000000    -2.590000000     3.823000000
H    -4.287000000    -3.433000000     4.101000000
H    -3.141000000    -2.476000000     4.354000000
O    -2.968000000    -6.594000000    -2.161000000
H    -2.117000000    -6.298000000    -1.838000000
H    -2.765000000    -7.354000000    -2.708000000
O     4.302000000     1.541000000    -0.733000000
H     3.653000000     2.236000000    -0.842000000
H     4.210000000     1.002000000    -1.518000000
O    -4.024000000    -0.902000000    -2.695000000
H    -4.889000000    -0.923000000    -3.105000000
H    -3.735000000    -1.814000000    -2.699000000
O    -0.472000000    -6.175000000    -0.580000000
H     0.456000000    -6.283000000    -0.789000000
H    -0.637000000    -6.814000000     0.113000000
O    -5.768000000    -4.572000000     1.345000000
H    -4.818000000    -4.525000000     1.448000000
H    -5.920000000    -4.367000000     0.422000000
O     2.041000000    -4.156000000     0.017000000
H     2.460000000    -4.997000000    -0.163000000
H     2.208000000    -3.633000000    -0.767000000
O     0.693000000     2.023000000     4.714000000
H     0.840000000     2.651000000     4.007000000
H     0.812000000     1.167000000     4.302000000
O     7.001000000     2.291000000     0.209000000
H     6.197000000     2.191000000    -0.302000000
H     7.234000000     1.399000000     0.466000000
O    -2.383000000     3.583000000    -2.764000000
H    -2.379000000     2.626000000    -2.779000000
H    -3.095000000     3.809000000    -2.165000000
O     3.040000000     7.616000000     2.303000000
H     3.509000000     7.472000000     3.125000000
H     2.305000000     7.003000000     2.337000000
O     1.705000000     4.774000000    -1.588000000
H     1.834000000     5.635000000    -1.190000000
H     1.662000000     4.171000000    -0.846000000
O    -2.091000000     0.855000000    -2.372000000
H    -2.897000000     0.346000000    -2.464000000
H    -1.632000000     0.446000000    -1.638000000
O     1.986000000    -2.963000000    -5.134000000
H     2.615000000    -2.522000000    -5.705000000
H     1.362000000    -3.371000000    -5.734000000
O    -4.360000000     4.353000000     1.935000000
H    -5.060000000     4.999000000     2.032000000
H    -4.663000000     3.594000000     2.434000000
O     2.781000000    -3.164000000    -2.493000000
H     3.637000000    -3.562000000    -2.652000000
H     2.470000000    -2.911000000    -3.362000000
O     3.645000000    -0.370000000    -2.394000000
H     3.170000000    -0.100000000    -3.181000000
H     3.289000000    -1.233000000    -2.185000000
O     1.776000000    -6.410000000     2.222000000
H     2.615000000    -6.118000000     1.865000000
H     1.132000000    -6.147000000     1.566000000
