158
-2983.29237
C     1.058000000     0.658000000    -0.827000000
H     1.756000000     1.051000000    -1.561000000
C     0.249000000    -0.433000000    -1.200000000
H     0.429000000    -0.918000000    -2.156000000
C    -0.769000000    -0.894000000    -0.308000000
H    -1.447000000    -1.661000000    -0.610000000
C    -0.845000000    -0.369000000     0.923000000
H    -1.553000000    -0.822000000     1.613000000
C    -0.044000000     0.690000000     1.337000000
H    -0.042000000     1.017000000     2.374000000
C     0.893000000     1.218000000     0.429000000
C     1.891000000     2.255000000     0.888000000
O     2.712000000     2.643000000     0.112000000
O     1.721000000     2.899000000     1.886000000
O    -4.654000000    -0.401000000     0.115000000
H    -4.561000000    -1.006000000    -0.621000000
H    -3.756000000    -0.216000000     0.388000000
O     0.003000000     5.117000000     6.585000000
H     0.501000000     5.090000000     5.768000000
H    -0.444000000     5.963000000     6.565000000
O     3.584000000     4.209000000     3.452000000
H     2.962000000     3.748000000     2.889000000
H     3.951000000     3.525000000     4.013000000
O     1.777000000    -2.061000000     1.713000000
H     1.245000000    -1.336000000     1.387000000
H     1.802000000    -2.685000000     0.987000000
O    -0.183000000     4.533000000     3.546000000
H    -0.999000000     4.033000000     3.559000000
H     0.395000000     4.034000000     2.969000000
O    -3.790000000     2.476000000    -3.908000000
H    -3.474000000     1.612000000    -3.644000000
H    -3.832000000     2.434000000    -4.864000000
O     0.697000000     0.021000000    -4.663000000
H     0.049000000     0.700000000    -4.848000000
H     1.309000000     0.068000000    -5.398000000
O    -4.491000000    -4.702000000     2.062000000
H    -4.565000000    -5.367000000     2.747000000
H    -3.567000000    -4.718000000     1.811000000
O    -0.351000000     6.468000000    -0.236000000
H    -0.265000000     7.101000000    -0.949000000
H     0.368000000     6.679000000     0.360000000
O     0.348000000    -3.279000000     4.255000000
H     0.162000000    -3.254000000     3.317000000
H     1.192000000    -3.727000000     4.320000000
O     5.665000000     5.153000000     1.901000000
H     5.280000000     4.629000000     1.198000000
H     4.999000000     5.159000000     2.588000000
O     4.014000000    -2.335000000     2.957000000
H     4.081000000    -3.284000000     2.857000000
H     3.277000000    -2.087000000     2.399000000
O     1.201000000    -0.598000000     4.732000000
H     1.434000000    -1.007000000     5.565000000
H     1.035000000    -1.333000000     4.143000000
O    -2.332000000     5.449000000     1.243000000
H    -1.627000000     5.956000000     0.840000000
H    -2.551000000     4.783000000     0.591000000
O     4.413000000     6.939000000    -0.711000000
H     3.573000000     6.780000000    -0.281000000
H     4.806000000     6.070000000    -0.797000000
O    -3.785000000     2.861000000     1.128000000
H    -3.851000000     2.592000000     2.044000000
H    -4.691000000     2.876000000     0.817000000
O    -5.226000000    -3.175000000    -2.690000000
H    -4.412000000    -3.406000000    -2.243000000
H    -5.633000000    -4.017000000    -2.896000000
O    -5.595000000     0.720000000     2.731000000
H    -4.853000000     0.252000000     3.113000000
H    -5.378000000     1.645000000     2.841000000
O    -0.974000000     5.327000000    -3.440000000
H    -1.562000000     5.140000000    -2.708000000
H    -0.115000000     5.032000000    -3.139000000
O     4.722000000     4.217000000    -0.569000000
H     3.894000000     3.800000000    -0.330000000
H     5.216000000     3.529000000    -1.016000000
O     6.873000000     1.635000000     1.481000000
H     5.971000000     1.340000000     1.351000000
H     7.303000000     1.466000000     0.643000000
O     6.264000000     2.004000000    -3.702000000
H     5.560000000     1.857000000    -3.070000000
H     6.807000000     2.683000000    -3.302000000
O    -0.880000000    -1.638000000    -6.561000000
H    -0.596000000    -1.178000000    -7.352000000
H    -0.977000000    -0.947000000    -5.905000000
O    -3.092000000     2.167000000     3.967000000
H    -2.824000000     1.306000000     4.288000000
H    -3.806000000     2.428000000     4.549000000
O    -1.740000000    -0.089000000     4.681000000
H    -0.818000000     0.036000000     4.908000000
H    -1.823000000    -1.029000000     4.522000000
O     2.834000000     4.543000000    -3.430000000
H     2.204000000     4.587000000    -2.711000000
H     2.353000000     4.128000000    -4.146000000
O     4.580000000     3.055000000     5.820000000
H     4.580000000     2.155000000     5.496000000
H     4.341000000     2.977000000     6.744000000
O    -2.211000000     1.421000000     7.287000000
H    -2.140000000     0.862000000     6.513000000
H    -1.591000000     1.044000000     7.912000000
O     1.310000000     6.852000000     4.089000000
H     0.861000000     6.008000000     4.038000000
H     0.607000000     7.491000000     4.204000000
O     4.487000000     0.600000000     1.421000000
H     4.115000000    -0.075000000     0.853000000
H     3.768000000     1.216000000     1.563000000
O     4.431000000     1.499000000    -1.911000000
H     4.282000000     0.562000000    -2.040000000
H     3.799000000     1.751000000    -1.239000000
O     0.031000000    -6.316000000    -0.738000000
H     0.537000000    -6.151000000    -1.534000000
H    -0.361000000    -7.178000000    -0.878000000
O    -2.645000000    -2.629000000     4.172000000
H    -2.861000000    -3.151000000     4.945000000
H    -3.400000000    -2.734000000     3.593000000
O    -3.189000000    -4.185000000    -1.327000000
H    -3.086000000    -4.403000000    -0.401000000
H    -2.875000000    -4.959000000    -1.793000000
O     3.957000000    -1.134000000    -0.742000000
H     3.462000000    -0.905000000    -1.529000000
H     4.618000000    -1.756000000    -1.047000000
O    -7.340000000    -1.522000000    -2.915000000
H    -7.466000000    -1.486000000    -3.863000000
H    -6.576000000    -2.085000000    -2.795000000
O    -1.735000000    -5.344000000     1.050000000
H    -1.013000000    -5.531000000     0.451000000
H    -1.420000000    -5.638000000     1.905000000
O    -5.117000000    -2.158000000     2.836000000
H    -5.341000000    -3.067000000     2.638000000
H    -5.268000000    -1.689000000     2.015000000
O     2.048000000    -4.575000000     0.266000000
H     1.343000000    -5.219000000     0.198000000
H     2.481000000    -4.602000000    -0.587000000
O    -3.334000000    -6.452000000    -3.421000000
H    -2.693000000    -6.451000000    -4.132000000
H    -4.062000000    -5.927000000    -3.754000000
O     1.596000000     2.032000000     4.706000000
H     1.104000000     2.191000000     3.901000000
H     1.645000000     1.079000000     4.773000000
O    -2.269000000     3.548000000    -1.093000000
H    -2.041000000     2.925000000    -1.783000000
H    -2.655000000     3.011000000    -0.402000000
O     2.352000000     6.291000000     1.138000000
H     2.387000000     6.640000000     2.028000000
H     2.193000000     5.354000000     1.254000000
O     0.755000000     4.121000000    -1.524000000
H     0.099000000     4.641000000    -1.059000000
H     1.205000000     3.632000000    -0.835000000
O    -2.460000000    -0.247000000    -2.804000000
H    -2.854000000    -1.086000000    -3.042000000
H    -1.773000000    -0.474000000    -2.178000000
O     0.906000000    -2.768000000    -3.668000000
H     0.103000000    -3.043000000    -4.110000000
H     1.043000000    -1.866000000    -3.960000000
O     1.832000000    -4.811000000    -2.323000000
H     2.618000000    -5.014000000    -2.829000000
H     1.496000000    -4.005000000    -2.715000000
O     3.108000000    -0.496000000    -3.274000000
H     2.217000000    -0.166000000    -3.382000000
H     3.341000000    -0.845000000    -4.134000000
