158
-3019.36141
C     1.287000000     0.611000000     0.267000000
H     2.352000000     0.823000000     0.314000000
C     1.025000000    -0.729000000    -0.036000000
H     1.816000000    -1.451000000    -0.224000000
C    -0.263000000    -1.200000000    -0.086000000
H    -0.443000000    -2.247000000    -0.497000000
C    -1.327000000    -0.329000000     0.016000000
H    -2.284000000    -0.713000000    -0.330000000
C    -1.066000000     1.035000000     0.131000000
H    -1.850000000     1.788000000     0.127000000
C     0.272000000     1.573000000     0.233000000
C     0.478000000     3.049000000     0.467000000
O     1.611000000     3.395000000     0.834000000
O    -0.470000000     3.823000000     0.641000000
O     4.688000000    -2.460000000     1.341000000
H     4.975000000    -1.891000000     2.056000000
H     3.769000000    -2.643000000     1.537000000
O    -4.267000000    -5.734000000     0.708000000
H    -4.127000000    -5.865000000     1.645000000
H    -4.462000000    -6.608000000     0.370000000
O    -2.568000000     4.830000000     5.160000000
H    -2.011000000     4.622000000     5.910000000
H    -1.957000000     4.949000000     4.433000000
O    -3.292000000    -0.707000000     2.260000000
H    -2.598000000    -0.139000000     1.925000000
H    -3.450000000    -0.393000000     3.150000000
O     0.840000000     2.707000000    -4.259000000
H     1.459000000     3.195000000    -4.803000000
H     1.307000000     2.562000000    -3.436000000
O     2.609000000     6.028000000     3.472000000
H     3.131000000     5.607000000     2.789000000
H     2.011000000     6.604000000     2.995000000
O    -3.584000000    -3.388000000    -3.202000000
H    -4.002000000    -3.837000000    -3.937000000
H    -2.735000000    -3.108000000    -3.543000000
O    -4.222000000    -0.853000000    -2.544000000
H    -3.835000000    -1.728000000    -2.568000000
H    -3.806000000    -0.386000000    -3.268000000
O    -6.613000000    -0.026000000    -3.626000000
H    -6.359000000     0.711000000    -4.182000000
H    -5.790000000    -0.337000000    -3.250000000
O     3.523000000    -5.922000000     0.370000000
H     4.229000000    -5.581000000    -0.178000000
H     2.784000000    -5.338000000     0.200000000
O     2.394000000     2.682000000     3.638000000
H     2.660000000     2.785000000     2.724000000
H     3.164000000     2.943000000     4.142000000
O    -4.112000000    -3.005000000     3.642000000
H    -3.370000000    -3.603000000     3.734000000
H    -3.882000000    -2.449000000     2.898000000
O     3.822000000    -1.133000000    -3.133000000
H     4.260000000    -0.729000000    -2.384000000
H     2.888000000    -1.034000000    -2.946000000
O    -2.381000000     1.058000000    -4.123000000
H    -1.740000000     1.294000000    -4.793000000
H    -3.003000000     1.785000000    -4.119000000
O    -1.478000000     3.907000000    -3.925000000
H    -0.704000000     3.345000000    -3.953000000
H    -1.565000000     4.149000000    -3.004000000
O    -1.518000000    -2.009000000    -4.422000000
H    -1.485000000    -1.053000000    -4.468000000
H    -1.067000000    -2.302000000    -5.214000000
O     5.917000000     0.369000000    -1.479000000
H     6.287000000     0.886000000    -0.763000000
H     6.277000000    -0.509000000    -1.350000000
O     1.167000000    -0.459000000    -3.328000000
H     0.712000000     0.290000000    -3.711000000
H     0.627000000    -0.711000000    -2.579000000
O    -5.002000000    -0.243000000     0.195000000
H    -4.416000000    -0.641000000    -0.448000000
H    -4.522000000    -0.295000000     1.022000000
O     0.081000000    -4.659000000    -5.351000000
H     0.030000000    -3.817000000    -5.803000000
H     0.513000000    -5.241000000    -5.978000000
O    -5.921000000    -3.659000000     1.208000000
H    -5.138000000    -4.109000000     0.890000000
H    -6.417000000    -4.336000000     1.666000000
O    -0.431000000     4.364000000     3.138000000
H    -0.376000000     4.434000000     2.185000000
H     0.453000000     4.568000000     3.444000000
O     1.827000000    -3.924000000     3.151000000
H     1.525000000    -3.094000000     2.783000000
H     2.546000000    -3.681000000     3.734000000
O    -1.527000000    -3.214000000     2.024000000
H    -1.358000000    -2.275000000     1.956000000
H    -1.887000000    -3.455000000     1.170000000
O     1.503000000     6.117000000    -0.460000000
H     0.923000000     5.355000000    -0.461000000
H     1.546000000     6.386000000    -1.377000000
O    -2.892000000    -3.440000000    -0.341000000
H    -3.074000000    -3.370000000    -1.278000000
H    -3.405000000    -4.196000000    -0.053000000
O    -1.428000000    -5.712000000     2.996000000
H    -1.572000000    -4.773000000     2.878000000
H    -0.987000000    -5.989000000     2.194000000
O     5.967000000    -1.122000000     3.212000000
H     6.809000000    -1.018000000     3.656000000
H     5.712000000    -0.231000000     2.971000000
O     3.005000000     2.475000000    -2.635000000
H     3.069000000     2.811000000    -1.741000000
H     3.913000000     2.411000000    -2.932000000
O     0.488000000     1.249000000     5.135000000
H     1.273000000     0.729000000     5.307000000
H     0.805000000     2.003000000     4.636000000
O     1.233000000    -0.748000000     3.109000000
H     1.987000000    -0.235000000     3.399000000
H     1.142000000    -0.536000000     2.180000000
O     1.494000000    -4.279000000    -0.434000000
H     1.143000000    -3.807000000    -1.189000000
H     0.745000000    -4.757000000    -0.080000000
O     5.173000000     1.387000000     2.382000000
H     5.166000000     1.937000000     1.598000000
H     4.886000000     1.970000000     3.085000000
O     3.549000000     5.054000000     1.168000000
H     2.856000000     4.399000000     1.082000000
H     3.231000000     5.805000000     0.667000000
O     0.402000000    -3.284000000    -2.743000000
H     0.521000000    -3.887000000    -3.477000000
H    -0.140000000    -2.580000000    -3.098000000
O    -1.836000000     1.050000000     3.773000000
H    -1.838000000     1.995000000     3.923000000
H    -0.924000000     0.789000000     3.902000000
O     5.659000000     3.143000000     0.539000000
H     6.369000000     3.504000000     0.009000000
H     5.046000000     3.871000000     0.647000000
O    -0.852000000    -5.786000000     0.233000000
H    -1.581000000    -5.316000000    -0.173000000
H    -0.909000000    -6.672000000    -0.126000000
O    -6.177000000     2.242000000     0.831000000
H    -5.554000000     1.558000000     0.585000000
H    -6.344000000     2.091000000     1.761000000
O    -3.213000000     5.417000000     1.985000000
H    -2.501000000     4.777000000     1.997000000
H    -2.907000000     6.104000000     1.392000000
O    -5.023000000     3.244000000    -3.631000000
H    -4.712000000     3.322000000    -2.729000000
H    -5.945000000     3.498000000    -3.589000000
O    -7.525000000    -1.305000000     0.046000000
H    -7.419000000    -2.246000000    -0.092000000
H    -6.668000000    -0.934000000    -0.164000000
O     4.075000000    -4.482000000    -2.723000000
H     3.556000000    -5.101000000    -3.236000000
H     3.444000000    -3.822000000    -2.436000000
O     5.737000000    -3.981000000    -0.805000000
H     5.436000000    -3.218000000    -0.311000000
H     5.100000000    -4.074000000    -1.513000000
O    -4.722000000     4.031000000    -0.513000000
H    -4.886000000     4.779000000     0.061000000
H    -5.394000000     3.393000000    -0.273000000
O     0.773000000     7.260000000     1.957000000
H    -0.158000000     7.094000000     2.108000000
H     0.937000000     6.921000000     1.077000000
O    -2.088000000     4.412000000    -1.396000000
H    -1.557000000     4.197000000    -0.629000000
H    -2.988000000     4.419000000    -1.069000000
O    -3.069000000     7.799000000     0.678000000
H    -3.835000000     8.120000000     0.203000000
H    -2.356000000     7.843000000     0.041000000
