158
-3054.47307
C     1.403000000     0.242000000    -0.519000000
H     2.284000000     0.452000000    -1.121000000
C     0.576000000    -0.737000000    -1.025000000
H     0.816000000    -1.328000000    -1.905000000
C    -0.735000000    -0.863000000    -0.520000000
H    -1.448000000    -1.618000000    -0.929000000
C    -1.098000000    -0.060000000     0.585000000
H    -2.029000000    -0.266000000     1.106000000
C    -0.275000000     0.912000000     1.086000000
H    -0.521000000     1.454000000     1.996000000
C     0.978000000     1.156000000     0.532000000
C     1.804000000     2.292000000     1.070000000
O     2.942000000     2.405000000     0.641000000
O     1.401000000     2.966000000     2.054000000
O    -0.102000000    -3.692000000    -3.231000000
H     0.452000000    -3.155000000    -3.799000000
H     0.479000000    -3.968000000    -2.522000000
O     2.115000000     7.487000000     2.077000000
H     2.308000000     6.552000000     2.019000000
H     1.173000000     7.529000000     2.240000000
O     3.003000000     4.929000000     2.551000000
H     2.347000000     4.252000000     2.384000000
H     3.771000000     4.645000000     2.053000000
O     1.440000000    -2.241000000    -4.880000000
H     1.160000000    -1.328000000    -4.820000000
H     1.078000000    -2.548000000    -5.712000000
O    -2.726000000    -3.243000000    -2.920000000
H    -2.984000000    -3.013000000    -2.028000000
H    -1.780000000    -3.378000000    -2.869000000
O     2.434000000     0.604000000    -4.483000000
H     3.360000000     0.387000000    -4.591000000
H     2.431000000     1.355000000    -3.891000000
O    -0.620000000    -5.796000000    -5.417000000
H    -0.424000000    -4.982000000    -4.954000000
H    -0.937000000    -6.388000000    -4.734000000
O     2.791000000    -0.887000000     2.935000000
H     3.156000000    -0.003000000     2.911000000
H     3.507000000    -1.434000000     3.259000000
O     0.404000000    -4.315000000     3.553000000
H    -0.018000000    -3.635000000     4.078000000
H     0.904000000    -3.833000000     2.894000000
O    -4.577000000    -0.467000000     4.121000000
H    -5.175000000    -1.215000000     4.099000000
H    -3.704000000    -0.859000000     4.117000000
O     6.841000000     0.220000000     2.786000000
H     6.402000000     0.832000000     2.195000000
H     6.127000000    -0.255000000     3.212000000
O     4.703000000     2.833000000     5.051000000
H     5.103000000     3.665000000     4.798000000
H     4.278000000     3.016000000     5.889000000
O    -0.811000000     4.218000000     1.464000000
H    -0.040000000     3.772000000     1.813000000
H    -0.560000000     4.470000000     0.575000000
O    -0.659000000     6.748000000     2.506000000
H    -0.595000000     5.992000000     1.923000000
H    -1.150000000     6.426000000     3.263000000
O     6.314000000    -1.536000000    -2.994000000
H     6.347000000    -2.062000000    -3.793000000
H     5.615000000    -1.933000000    -2.474000000
O     0.126000000     6.247000000    -0.328000000
H     1.039000000     6.083000000    -0.564000000
H     0.174000000     6.736000000     0.493000000
O    -4.995000000    -0.475000000     0.310000000
H    -4.564000000     0.313000000     0.641000000
H    -5.018000000    -0.356000000    -0.639000000
O    -5.877000000     1.805000000     3.209000000
H    -5.183000000     1.162000000     3.356000000
H    -6.689000000     1.306000000     3.295000000
O    -1.154000000    -2.537000000     4.698000000
H    -1.143000000    -2.267000000     5.616000000
H    -1.179000000    -1.716000000     4.207000000
O     0.699000000     2.867000000     4.528000000
H     1.072000000     3.050000000     3.666000000
H     0.844000000     1.930000000     4.659000000
O     4.330000000     1.385000000     2.539000000
H     3.842000000     1.711000000     1.783000000
H     4.283000000     2.096000000     3.179000000
O     5.037000000     3.798000000    -0.105000000
H     5.743000000     3.152000000    -0.110000000
H     4.286000000     3.331000000     0.260000000
O    -1.840000000    -4.054000000     1.604000000
H    -2.491000000    -4.713000000     1.845000000
H    -1.164000000    -4.128000000     2.277000000
O     0.889000000    -2.185000000     1.629000000
H     1.533000000    -1.518000000     1.867000000
H     0.189000000    -1.697000000     1.194000000
O    -4.716000000     3.321000000    -1.066000000
H    -4.854000000     4.110000000    -0.542000000
H    -4.213000000     2.739000000    -0.497000000
O    -2.185000000     1.061000000    -4.562000000
H    -1.888000000     1.375000000    -3.708000000
H    -1.565000000     1.439000000    -5.185000000
O    -6.098000000    -2.187000000     2.237000000
H    -7.042000000    -2.122000000     2.097000000
H    -5.717000000    -1.599000000     1.585000000
O    -3.638000000     1.837000000     0.889000000
H    -2.685000000     1.845000000     0.976000000
H    -3.958000000     2.171000000     1.727000000
O     1.485000000    -0.173000000     5.091000000
H     1.785000000    -0.682000000     5.845000000
H     2.025000000    -0.481000000     4.364000000
O     1.366000000     2.459000000     7.414000000
H     2.024000000     2.983000000     7.871000000
H     1.475000000     2.689000000     6.491000000
O    -0.911000000    -5.746000000    -0.726000000
H    -1.136000000    -4.857000000    -0.452000000
H    -0.065000000    -5.917000000    -0.312000000
O     3.152000000    -4.366000000    -4.202000000
H     2.734000000    -3.514000000    -4.326000000
H     2.711000000    -4.740000000    -3.438000000
O    -3.805000000    -3.000000000    -0.304000000
H    -3.105000000    -3.190000000     0.321000000
H    -4.338000000    -2.333000000     0.128000000
O    -1.268000000    -7.056000000    -3.105000000
H    -1.626000000    -6.564000000    -2.366000000
H    -0.981000000    -7.886000000    -2.723000000
O    -0.891000000     1.874000000    -2.362000000
H    -0.758000000     1.003000000    -1.988000000
H    -0.008000000     2.225000000    -2.471000000
O    -1.435000000     0.012000000     3.946000000
H    -0.509000000     0.164000000     3.761000000
H    -1.556000000     0.329000000     4.842000000
O    -2.846000000     3.673000000     2.893000000
H    -3.000000000     4.584000000     3.142000000
H    -2.026000000     3.695000000     2.400000000
O    -5.030000000    -5.235000000    -3.268000000
H    -4.924000000    -5.331000000    -4.214000000
H    -4.540000000    -4.442000000    -3.052000000
O     2.683000000     5.624000000    -1.127000000
H     2.924000000     5.640000000    -2.054000000
H     3.342000000     5.061000000    -0.720000000
O     2.110000000     2.639000000    -2.725000000
H     2.682000000     3.285000000    -3.139000000
H     2.424000000     2.586000000    -1.822000000
O     6.020000000     6.339000000    -0.649000000
H     5.819000000     6.331000000    -1.585000000
H     5.802000000     5.457000000    -0.349000000
O     4.345000000    -2.489000000    -1.296000000
H     4.060000000    -1.828000000    -0.665000000
H     3.683000000    -3.177000000    -1.239000000
O    -5.024000000    -1.001000000    -2.341000000
H    -5.948000000    -1.170000000    -2.525000000
H    -4.658000000    -1.863000000    -2.141000000
O    -5.446000000    -5.781000000     0.883000000
H    -5.398000000    -4.842000000     1.062000000
H    -6.300000000    -6.047000000     1.225000000
O     2.300000000    -3.685000000    -0.071000000
H     2.052000000    -4.577000000     0.171000000
H     1.890000000    -3.133000000     0.594000000
O    -3.110000000    -1.576000000    -5.539000000
H    -3.130000000    -1.987000000    -4.675000000
H    -2.917000000    -0.655000000    -5.362000000
O     5.332000000     1.080000000    -4.070000000
H     5.659000000     0.264000000    -3.690000000
H     6.025000000     1.718000000    -3.899000000
O    -1.092000000     5.324000000     4.977000000
H    -0.672000000     4.519000000     4.674000000
H    -0.474000000     5.693000000     5.608000000
