158
-3034.32953
C     1.284000000     0.544000000    -0.142000000
H     2.256000000     0.936000000    -0.430000000
C     0.809000000    -0.457000000    -0.827000000
H     1.290000000    -0.918000000    -1.686000000
C    -0.512000000    -0.910000000    -0.617000000
H    -1.018000000    -1.647000000    -1.301000000
C    -1.217000000    -0.326000000     0.396000000
H    -2.249000000    -0.637000000     0.536000000
C    -0.643000000     0.665000000     1.201000000
H    -1.178000000     1.047000000     2.066000000
C     0.614000000     1.140000000     0.881000000
C     1.269000000     2.236000000     1.639000000
O     2.302000000     2.664000000     1.262000000
O     0.645000000     2.709000000     2.540000000
O    -1.052000000    -4.465000000    -2.509000000
H    -0.426000000    -4.231000000    -3.195000000
H    -1.604000000    -3.688000000    -2.414000000
O     1.712000000     5.064000000    -1.589000000
H     2.487000000     4.568000000    -1.324000000
H     2.060000000     5.893000000    -1.917000000
O     0.937000000     7.649000000     2.610000000
H     1.086000000     6.744000000     2.886000000
H     0.277000000     7.584000000     1.920000000
O     1.920000000     5.051000000     2.888000000
H     1.594000000     4.151000000     2.887000000
H     2.519000000     5.090000000     2.142000000
O    -0.051000000    -3.025000000    -4.824000000
H     0.815000000    -3.120000000    -4.427000000
H     0.021000000    -3.477000000    -5.665000000
O    -3.163000000    -6.237000000    -2.590000000
H    -2.496000000    -5.643000000    -2.246000000
H    -3.352000000    -5.904000000    -3.467000000
O    -0.457000000     0.086000000    -4.025000000
H    -0.042000000     0.751000000    -3.476000000
H    -1.208000000    -0.213000000    -3.513000000
O     2.888000000    -0.344000000     3.265000000
H     2.699000000     0.385000000     2.674000000
H     3.843000000    -0.405000000     3.272000000
O    -3.181000000    -1.459000000     4.620000000
H    -2.377000000    -1.923000000     4.388000000
H    -2.929000000    -0.536000000     4.637000000
O     5.813000000     1.395000000     2.839000000
H     6.281000000     1.854000000     2.141000000
H     5.079000000     1.970000000     3.054000000
O     2.510000000     3.711000000     6.497000000
H     2.340000000     4.625000000     6.268000000
H     2.985000000     3.756000000     7.327000000
O    -1.676000000     4.071000000     1.871000000
H    -0.846000000     3.626000000     2.043000000
H    -2.248000000     3.386000000     1.524000000
O    -1.851000000     7.113000000     1.136000000
H    -2.077000000     7.104000000     0.206000000
H    -2.023000000     6.220000000     1.433000000
O     1.701000000    -0.635000000    -5.622000000
H     1.783000000    -1.379000000    -6.218000000
H     0.807000000    -0.696000000    -5.285000000
O     5.483000000    -2.643000000    -1.472000000
H     4.687000000    -3.175000000    -1.455000000
H     6.154000000    -3.228000000    -1.824000000
O     4.596000000    -1.574000000    -4.045000000
H     4.643000000    -0.656000000    -3.780000000
H     5.292000000    -2.003000000    -3.547000000
O    -3.600000000     2.461000000     0.710000000
H    -3.120000000     2.294000000    -0.101000000
H    -4.507000000     2.582000000     0.431000000
O     5.000000000     4.596000000     4.850000000
H     5.379000000     4.574000000     5.729000000
H     4.679000000     3.705000000     4.706000000
O    -6.008000000    -2.503000000     1.202000000
H    -6.016000000    -1.760000000     1.805000000
H    -6.784000000    -3.012000000     1.438000000
O    -0.245000000     2.412000000     5.365000000
H    -0.141000000     2.913000000     4.556000000
H     0.365000000     1.680000000     5.272000000
O     3.453000000     2.712000000     3.910000000
H     3.090000000     2.885000000     3.042000000
H     2.914000000     3.233000000     4.504000000
O    -6.725000000    -0.291000000     2.393000000
H    -7.206000000     0.013000000     1.623000000
H    -5.948000000     0.267000000     2.425000000
O     0.877000000    -5.122000000    -0.867000000
H     0.103000000    -4.930000000    -1.398000000
H     0.550000000    -5.678000000    -0.160000000
O     4.193000000     3.300000000    -0.768000000
H     4.752000000     2.534000000    -0.903000000
H     3.567000000     3.025000000    -0.098000000
O    -0.522000000    -1.758000000     3.763000000
H    -0.179000000    -0.889000000     3.973000000
H    -0.108000000    -1.985000000     2.930000000
O     0.576000000    -2.994000000     1.425000000
H     0.583000000    -2.246000000     0.828000000
H     1.138000000    -3.643000000     1.002000000
O    -0.599000000     1.313000000    -6.724000000
H    -0.908000000     0.548000000    -7.209000000
H    -0.218000000     0.951000000    -5.924000000
O     6.852000000     2.061000000     0.250000000
H     6.652000000     1.485000000    -0.488000000
H     7.612000000     2.567000000    -0.039000000
O    -4.490000000     1.022000000     2.941000000
H    -4.220000000     1.795000000     2.446000000
H    -3.769000000     0.863000000     3.549000000
O     1.019000000     0.038000000     5.317000000
H     1.413000000     0.012000000     6.189000000
H     1.749000000    -0.128000000     4.720000000
O    -2.348000000    -4.792000000     0.798000000
H    -2.586000000    -3.953000000     1.193000000
H    -1.412000000    -4.883000000     0.977000000
O     2.457000000    -3.223000000    -3.573000000
H     3.023000000    -2.597000000    -4.025000000
H     2.981000000    -3.527000000    -2.832000000
O    -3.057000000    -2.511000000     1.869000000
H    -3.149000000    -1.971000000     2.654000000
H    -3.921000000    -2.487000000     1.459000000
O    -2.321000000    -7.729000000     0.016000000
H    -2.598000000    -7.407000000     0.874000000
H    -2.598000000    -7.048000000    -0.597000000
O    -1.354000000     2.305000000    -1.686000000
H    -1.015000000     1.501000000    -1.293000000
H    -1.281000000     2.159000000    -2.630000000
O    -2.612000000     1.437000000     5.176000000
H    -3.029000000     2.271000000     4.959000000
H    -1.696000000     1.663000000     5.338000000
O    -2.551000000    -2.520000000    -5.717000000
H    -1.715000000    -2.458000000    -5.253000000
H    -2.740000000    -3.458000000    -5.743000000
O    -5.024000000    -4.186000000    -1.325000000
H    -4.241000000    -4.461000000    -0.848000000
H    -5.287000000    -3.368000000    -0.903000000
O    -1.228000000     4.892000000    -1.686000000
H    -1.229000000     3.942000000    -1.799000000
H    -0.350000000     5.094000000    -1.363000000
O    -1.835000000     4.736000000     6.930000000
H    -1.405000000     4.074000000     6.389000000
H    -1.414000000     4.658000000     7.785000000
O     0.608000000     2.791000000    -4.083000000
H     0.530000000     3.402000000    -4.815000000
H     1.022000000     3.302000000    -3.387000000
O     1.993000000     6.154000000     5.398000000
H     1.947000000     5.642000000     4.591000000
H     1.175000000     6.652000000     5.413000000
O     4.689000000     5.894000000    -0.317000000
H     4.418000000     6.232000000    -1.170000000
H     4.781000000     4.951000000    -0.450000000
O     3.328000000    -4.305000000    -1.026000000
H     2.475000000    -4.658000000    -1.276000000
H     3.447000000    -4.585000000    -0.118000000
O    -5.886000000    -1.189000000    -1.879000000
H    -5.897000000    -0.371000000    -1.381000000
H    -6.743000000    -1.582000000    -1.712000000
O    -3.096000000    -0.090000000    -2.760000000
H    -3.850000000    -0.657000000    -2.599000000
H    -3.478000000     0.759000000    -2.981000000
O     3.308000000     0.925000000    -3.971000000
H     2.927000000     0.532000000    -4.756000000
H     2.559000000     1.087000000    -3.397000000
O    -2.986000000     3.960000000     4.329000000
H    -2.555000000     3.984000000     3.474000000
H    -2.987000000     4.871000000     4.622000000
