158
-3007.84373
C     1.453000000     0.104000000     0.193000000
H     2.526000000    -0.071000000     0.174000000
C     0.742000000    -1.008000000    -0.180000000
H     1.252000000    -1.945000000    -0.391000000
C    -0.608000000    -1.017000000    -0.218000000
H    -1.066000000    -1.877000000    -0.587000000
C    -1.300000000     0.149000000     0.087000000
H    -2.386000000     0.184000000     0.119000000
C    -0.629000000     1.359000000     0.332000000
H    -1.208000000     2.276000000     0.405000000
C     0.819000000     1.307000000     0.433000000
C     1.591000000     2.589000000     0.449000000
O     2.795000000     2.569000000     0.161000000
O     1.025000000     3.657000000     0.526000000
O    -2.265000000    -3.913000000     2.297000000
H    -1.631000000    -4.630000000     2.324000000
H    -2.213000000    -3.516000000     3.167000000
O     0.113000000     3.176000000    -3.402000000
H     0.550000000     3.162000000    -4.254000000
H     0.717000000     2.719000000    -2.816000000
O     0.590000000    -2.237000000     2.597000000
H    -0.182000000    -2.767000000     2.395000000
H     0.548000000    -1.508000000     1.979000000
O    -4.278000000     0.992000000    -2.045000000
H    -4.782000000     0.940000000    -2.858000000
H    -3.724000000     1.764000000    -2.155000000
O    -2.541000000     2.880000000    -3.359000000
H    -1.622000000     3.137000000    -3.430000000
H    -2.803000000     2.675000000    -4.256000000
O    -3.878000000    -2.397000000    -2.391000000
H    -4.797000000    -2.511000000    -2.634000000
H    -3.867000000    -2.500000000    -1.439000000
O     5.151000000     4.052000000     0.251000000
H     5.741000000     3.608000000     0.860000000
H     4.420000000     3.445000000     0.140000000
O    -2.257000000     3.386000000     3.311000000
H    -3.213000000     3.332000000     3.306000000
H    -2.012000000     3.199000000     4.218000000
O     6.725000000     3.577000000    -1.834000000
H     6.255000000     3.723000000    -1.013000000
H     6.038000000     3.543000000    -2.500000000
O     6.734000000     0.575000000     3.117000000
H     5.802000000     0.694000000     3.297000000
H     6.889000000    -0.359000000     3.264000000
O    -1.936000000    -1.215000000    -4.549000000
H    -1.415000000    -0.496000000    -4.192000000
H    -2.471000000    -1.512000000    -3.813000000
O     0.160000000    -3.169000000    -3.584000000
H    -0.648000000    -2.714000000    -3.820000000
H     0.036000000    -4.061000000    -3.908000000
O     4.853000000     0.947000000    -0.876000000
H     4.961000000     0.288000000    -0.189000000
H     4.083000000     1.449000000    -0.607000000
O     7.082000000     2.369000000     1.286000000
H     7.119000000     1.763000000     2.026000000
H     7.816000000     2.967000000     1.429000000
O    -3.520000000    -3.560000000    -6.052000000
H    -3.610000000    -3.861000000    -5.148000000
H    -2.715000000    -3.976000000    -6.364000000
O    -2.250000000    -7.339000000     0.323000000
H    -3.114000000    -7.031000000     0.596000000
H    -2.214000000    -8.248000000     0.623000000
O     1.604000000     1.077000000    -2.620000000
H     2.371000000     0.616000000    -2.961000000
H     1.051000000     0.385000000    -2.258000000
O    -0.820000000    -5.597000000    -4.241000000
H    -1.688000000    -5.423000000    -3.875000000
H    -0.366000000    -6.088000000    -3.556000000
O     4.883000000     3.987000000     3.324000000
H     4.084000000     3.475000000     3.197000000
H     5.278000000     3.620000000     4.115000000
O    -0.024000000     5.080000000    -1.351000000
H     0.110000000     4.404000000    -2.016000000
H     0.468000000     4.769000000    -0.591000000
O    -0.308000000     4.913000000     4.678000000
H    -0.075000000     3.989000000     4.591000000
H    -0.821000000     4.955000000     5.485000000
O    -4.044000000    -3.413000000     0.332000000
H    -3.324000000    -3.532000000     0.950000000
H    -4.832000000    -3.590000000     0.846000000
O    -1.266000000     4.964000000     1.497000000
H    -0.560000000     4.464000000     1.088000000
H    -1.511000000     4.448000000     2.265000000
O    -5.486000000    -0.630000000    -0.324000000
H    -5.555000000    -1.560000000    -0.539000000
H    -4.998000000    -0.251000000    -1.055000000
O     0.356000000    -5.657000000     2.785000000
H     1.295000000    -5.588000000     2.956000000
H     0.090000000    -6.459000000     3.236000000
O     3.157000000     4.738000000    -1.704000000
H     3.815000000     5.080000000    -1.099000000
H     2.693000000     4.069000000    -1.201000000
O     0.607000000    -6.862000000    -2.167000000
H     1.325000000    -6.399000000    -2.597000000
H     0.423000000    -6.343000000    -1.383000000
O    -3.987000000     5.602000000     1.117000000
H    -3.033000000     5.541000000     1.166000000
H    -4.156000000     6.071000000     0.300000000
O     3.668000000     4.902000000    -4.385000000
H     4.403000000     4.289000000    -4.388000000
H     3.209000000     4.721000000    -3.565000000
O     5.184000000     0.234000000    -3.544000000
H     4.936000000     0.166000000    -2.622000000
H     5.297000000    -0.673000000    -3.829000000
O     4.296000000    -1.505000000     2.263000000
H     4.262000000    -2.228000000     2.889000000
H     4.340000000    -1.932000000     1.407000000
O    -3.216000000     0.334000000     4.551000000
H    -3.178000000     0.231000000     3.600000000
H    -2.721000000     1.135000000     4.725000000
O    -5.409000000    -4.989000000     2.779000000
H    -5.534000000    -4.200000000     3.307000000
H    -4.504000000    -5.249000000     2.949000000
O    -3.982000000    -0.598000000     2.029000000
H    -4.720000000    -1.110000000     2.357000000
H    -4.140000000    -0.526000000     1.087000000
O     2.952000000     5.678000000     1.425000000
H     2.339000000     5.097000000     0.975000000
H     3.655000000     5.101000000     1.722000000
O     1.505000000     6.600000000     3.746000000
H     1.643000000     6.365000000     2.828000000
H     0.730000000     6.101000000     4.007000000
O     2.849000000    -3.490000000    -2.188000000
H     2.832000000    -4.306000000    -2.688000000
H     1.990000000    -3.097000000    -2.341000000
O     1.197000000     2.418000000     4.249000000
H     0.704000000     2.044000000     3.519000000
H     1.322000000     1.686000000     4.854000000
O     5.857000000     6.922000000    -0.806000000
H     5.659000000     6.096000000    -0.365000000
H     6.790000000     7.061000000    -0.646000000
O    -0.055000000    -5.705000000     0.178000000
H    -0.795000000    -6.312000000     0.159000000
H     0.186000000    -5.650000000     1.103000000
O    -2.595000000     5.276000000    -1.992000000
H    -2.705000000     4.466000000    -2.491000000
H    -1.689000000     5.245000000    -1.683000000
O     3.305000000     8.312000000     1.175000000
H     2.552000000     8.517000000     1.729000000
H     3.278000000     7.360000000     1.077000000
O     4.525000000    -2.313000000    -0.329000000
H     5.362000000    -2.529000000    -0.741000000
H     3.897000000    -2.908000000    -0.739000000
O    -5.826000000     2.130000000     0.515000000
H    -5.640000000     1.228000000     0.255000000
H    -5.022000000     2.608000000     0.313000000
O    -3.448000000    -4.776000000    -3.570000000
H    -4.259000000    -5.191000000    -3.276000000
H    -3.459000000    -3.912000000    -3.157000000
O     3.793000000     1.012000000     2.959000000
H     4.039000000     0.133000000     2.671000000
H     3.154000000     1.307000000     2.310000000
O    -0.673000000     7.968000000    -1.154000000
H    -0.487000000     7.032000000    -1.225000000
H    -0.057000000     8.382000000    -1.758000000
O    -0.406000000     7.478000000     1.651000000
H    -0.707000000     6.571000000     1.589000000
H    -0.366000000     7.779000000     0.743000000
