158
-3008.67694
C     1.475000000    -0.321000000    -0.156000000
H     2.497000000    -0.665000000    -0.294000000
C     0.494000000    -1.260000000    -0.272000000
H     0.755000000    -2.283000000    -0.528000000
C    -0.849000000    -0.919000000    -0.039000000
H    -1.727000000    -1.565000000    -0.054000000
C    -1.152000000     0.369000000     0.317000000
H    -2.196000000     0.604000000     0.505000000
C    -0.185000000     1.381000000     0.315000000
H    -0.458000000     2.398000000     0.588000000
C     1.165000000     1.069000000     0.010000000
C     2.158000000     2.160000000     0.366000000
O     3.333000000     2.027000000     0.542000000
O     1.676000000     3.222000000     0.305000000
O    -0.439000000    -4.991000000     1.120000000
H    -0.008000000    -4.572000000     1.866000000
H    -1.354000000    -4.716000000     1.188000000
O    -5.249000000     1.148000000     3.599000000
H    -6.013000000     0.574000000     3.548000000
H    -4.556000000     0.594000000     3.959000000
O     0.939000000    -1.561000000     2.738000000
H     0.673000000    -2.454000000     2.957000000
H     0.949000000    -1.541000000     1.782000000
O     6.923000000     4.766000000     1.263000000
H     6.672000000     3.990000000     1.764000000
H     6.395000000     5.473000000     1.636000000
O    -3.563000000     1.607000000    -2.277000000
H    -3.684000000     1.324000000    -3.183000000
H    -2.622000000     1.525000000    -2.124000000
O    -1.043000000     1.177000000    -3.058000000
H    -0.475000000     0.748000000    -2.418000000
H    -0.775000000     0.810000000    -3.900000000
O    -3.175000000    -4.283000000    -1.138000000
H    -4.093000000    -4.039000000    -1.260000000
H    -3.095000000    -4.450000000    -0.199000000
O     5.959000000     3.394000000     3.539000000
H     6.182000000     3.766000000     4.392000000
H     6.514000000     2.618000000     3.463000000
O     1.425000000    -4.264000000     3.303000000
H     2.292000000    -4.016000000     2.981000000
H     1.587000000    -5.016000000     3.872000000
O    -0.947000000     2.069000000     3.104000000
H    -1.470000000     1.375000000     2.702000000
H    -1.388000000     2.252000000     3.934000000
O     6.907000000     2.983000000    -2.047000000
H     6.274000000     2.564000000    -1.465000000
H     6.798000000     3.920000000    -1.886000000
O    -1.030000000    -3.225000000    -2.928000000
H    -1.621000000    -2.882000000    -3.598000000
H    -1.610000000    -3.622000000    -2.278000000
O     2.067000000    -2.875000000    -3.004000000
H     1.141000000    -2.996000000    -2.792000000
H     2.232000000    -3.495000000    -3.714000000
O     4.435000000     0.557000000    -1.215000000
H     5.184000000     0.168000000    -0.765000000
H     4.103000000     1.214000000    -0.603000000
O     7.050000000     0.137000000    -0.095000000
H     7.202000000    -0.024000000     0.837000000
H     7.722000000     0.772000000    -0.341000000
O     1.962000000    -0.020000000    -3.330000000
H     1.555000000     0.142000000    -2.480000000
H     1.930000000    -0.971000000    -3.434000000
O     5.347000000     0.450000000     4.942000000
H     5.124000000     1.339000000     5.217000000
H     5.163000000     0.437000000     4.003000000
O     0.692000000     4.563000000    -1.834000000
H     1.076000000     3.908000000    -2.417000000
H     0.961000000     4.291000000    -0.957000000
O    -3.019000000    -3.984000000     1.604000000
H    -3.870000000    -3.599000000     1.811000000
H    -2.465000000    -3.755000000     2.351000000
O    -4.767000000     3.707000000    -1.377000000
H    -4.880000000     3.614000000    -0.431000000
H    -4.226000000     2.958000000    -1.628000000
O     0.023000000     4.400000000     2.190000000
H     0.454000000     4.350000000     1.337000000
H     0.091000000     3.513000000     2.545000000
O    -4.423000000    -0.100000000    -0.091000000
H    -5.280000000     0.170000000    -0.421000000
H    -3.796000000     0.351000000    -0.657000000
O    -5.759000000    -3.532000000    -1.822000000
H    -5.941000000    -4.391000000    -2.202000000
H    -5.687000000    -2.947000000    -2.576000000
O     4.454000000     4.173000000    -1.178000000
H     4.135000000     5.072000000    -1.247000000
H     3.942000000     3.790000000    -0.466000000
O     1.520000000    -5.980000000    -1.460000000
H     2.416000000    -5.726000000    -1.682000000
H     1.271000000    -5.386000000    -0.753000000
O    -2.699000000     5.078000000     2.308000000
H    -1.764000000     4.878000000     2.368000000
H    -2.857000000     5.208000000     1.373000000
O    -1.847000000    -2.240000000    -5.362000000
H    -1.258000000    -1.504000000    -5.526000000
H    -2.440000000    -2.245000000    -6.114000000
O     3.222000000     2.465000000     5.240000000
H     2.920000000     1.812000000     4.608000000
H     2.472000000     2.604000000     5.818000000
O     4.468000000     0.696000000    -4.207000000
H     3.759000000     0.173000000    -4.581000000
H     4.198000000     0.855000000    -3.303000000
O     4.940000000    -2.502000000     1.694000000
H     4.789000000    -3.209000000     2.321000000
H     5.341000000    -2.933000000     0.939000000
O    -2.630000000    -0.376000000     3.379000000
H    -3.172000000    -0.975000000     2.865000000
H    -2.040000000    -0.949000000     3.870000000
O     4.025000000     6.975000000    -1.413000000
H     4.710000000     7.511000000    -1.012000000
H     3.488000000     6.683000000    -0.676000000
O    -4.487000000    -6.240000000     2.100000000
H    -3.985000000    -5.431000000     1.996000000
H    -4.518000000    -6.382000000     3.046000000
O    -4.718000000    -1.605000000     1.935000000
H    -4.405000000    -1.145000000     1.157000000
H    -5.572000000    -1.214000000     2.118000000
O     3.677000000     4.177000000     2.416000000
H     3.307000000     3.592000000     1.756000000
H     4.409000000     3.685000000     2.789000000
O    -2.094000000    -3.129000000     4.065000000
H    -2.756000000    -3.289000000     4.738000000
H    -1.371000000    -2.713000000     4.533000000
O     4.563000000    -1.893000000    -2.224000000
H     4.464000000    -0.959000000    -2.036000000
H     3.668000000    -2.231000000    -2.241000000
O     1.472000000     0.684000000     4.075000000
H     1.641000000    -0.121000000     3.587000000
H     0.788000000     1.129000000     3.574000000
O     2.667000000     6.387000000     1.082000000
H     2.751000000     5.690000000     1.733000000
H     1.788000000     6.738000000     1.220000000
O     0.175000000    -7.491000000     0.699000000
H     0.750000000    -7.577000000    -0.062000000
H    -0.185000000    -6.607000000     0.629000000
O    -1.519000000     4.057000000    -3.411000000
H    -1.569000000     3.103000000    -3.476000000
H    -0.834000000     4.217000000    -2.763000000
O     6.177000000    -3.509000000    -0.618000000
H     7.053000000    -3.126000000    -0.571000000
H     5.705000000    -2.953000000    -1.237000000
O    -5.297000000    -1.648000000    -3.818000000
H    -5.818000000    -0.971000000    -3.386000000
H    -4.424000000    -1.264000000    -3.896000000
O    -5.805000000     2.571000000     1.162000000
H    -5.572000000     1.851000000     1.749000000
H    -6.664000000     2.328000000     0.817000000
O    -3.015000000    -6.789000000    -2.395000000
H    -2.829000000    -7.376000000    -1.663000000
H    -2.488000000    -6.010000000    -2.217000000
O     4.559000000     0.464000000     2.434000000
H     4.444000000    -0.413000000     2.069000000
H     4.327000000     1.054000000     1.717000000
O     0.798000000     7.324000000    -1.395000000
H     0.668000000     6.393000000    -1.216000000
H    -0.001000000     7.596000000    -1.847000000
O     0.083000000     7.162000000     1.783000000
H     0.131000000     6.301000000     2.198000000
H    -0.684000000     7.111000000     1.213000000
