158
-3054.36454
C     1.238000000    -0.693000000     0.268000000
H     2.133000000    -1.286000000     0.436000000
C     0.306000000    -1.058000000    -0.675000000
H     0.270000000    -1.962000000    -1.277000000
C    -0.835000000    -0.322000000    -0.774000000
H    -1.456000000    -0.639000000    -1.555000000
C    -1.024000000     0.914000000    -0.075000000
H    -1.945000000     1.482000000    -0.183000000
C    -0.004000000     1.320000000     0.731000000
H    -0.159000000     2.218000000     1.324000000
C     1.085000000     0.498000000     0.982000000
C     2.161000000     0.945000000     1.963000000
O     2.705000000     0.085000000     2.590000000
O     2.455000000     2.136000000     2.041000000
O    -5.319000000     0.475000000    -4.417000000
H    -5.130000000     0.561000000    -3.483000000
H    -4.851000000     1.204000000    -4.824000000
O    -2.135000000    -3.619000000    -3.028000000
H    -1.894000000    -4.458000000    -3.420000000
H    -1.384000000    -3.051000000    -3.199000000
O    -3.097000000     0.259000000     3.022000000
H    -2.567000000    -0.137000000     3.713000000
H    -2.856000000    -0.222000000     2.230000000
O    -6.920000000    -2.752000000    -1.244000000
H    -6.332000000    -2.771000000    -1.999000000
H    -6.337000000    -2.752000000    -0.485000000
O     6.131000000     3.039000000     2.778000000
H     5.665000000     2.496000000     3.413000000
H     5.445000000     3.561000000     2.361000000
O     3.741000000    -2.328000000     2.723000000
H     2.942000000    -2.521000000     2.232000000
H     3.684000000    -1.392000000     2.914000000
O     5.164000000    -2.623000000     0.232000000
H     4.511000000    -3.290000000     0.021000000
H     5.268000000    -2.680000000     1.181000000
O     3.742000000    -5.352000000     2.979000000
H     3.503000000    -5.033000000     2.109000000
H     3.653000000    -4.586000000     3.547000000
O     0.236000000    -0.080000000    -4.544000000
H    -0.078000000     0.335000000    -3.740000000
H    -0.464000000    -0.685000000    -4.791000000
O     2.854000000     3.155000000    -0.647000000
H     2.321000000     3.948000000    -0.588000000
H     2.725000000     2.717000000     0.195000000
O    -3.102000000    -5.404000000    -0.957000000
H    -3.158000000    -4.720000000    -1.625000000
H    -2.828000000    -6.185000000    -1.437000000
O     0.539000000    -4.117000000    -3.252000000
H     1.426000000    -3.778000000    -3.135000000
H     0.663000000    -4.982000000    -3.644000000
O     2.188000000     5.529000000     4.822000000
H     1.817000000     5.057000000     5.567000000
H     1.442000000     5.982000000     4.429000000
O    -5.839000000     2.059000000    -1.068000000
H    -5.500000000     1.168000000    -1.153000000
H    -6.702000000     2.028000000    -1.481000000
O    -0.926000000    -2.424000000    -5.789000000
H    -1.397000000    -3.252000000    -5.878000000
H    -0.002000000    -2.672000000    -5.799000000
O     6.320000000     0.195000000    -0.973000000
H     5.893000000    -0.660000000    -0.935000000
H     5.713000000     0.744000000    -1.470000000
O    -0.018000000    -5.149000000    -0.646000000
H    -0.881000000    -5.459000000    -0.372000000
H    -0.180000000    -4.682000000    -1.465000000
O     1.221000000     5.305000000     0.588000000
H     1.643000000     5.981000000     1.118000000
H     0.337000000     5.234000000     0.949000000
O    -4.792000000    -2.748000000    -3.237000000
H    -5.059000000    -2.404000000    -4.089000000
H    -3.844000000    -2.862000000    -3.312000000
O    -0.164000000     5.320000000    -1.974000000
H     0.160000000     5.925000000    -2.641000000
H     0.115000000     5.707000000    -1.144000000
O     1.236000000     1.856000000    -2.529000000
H     0.610000000     1.616000000    -1.845000000
H     1.842000000     2.457000000    -2.098000000
O    -2.429000000    -4.938000000     1.701000000
H    -3.027000000    -4.590000000     2.363000000
H    -2.917000000    -4.875000000     0.880000000
O     0.302000000     3.177000000     3.948000000
H     0.504000000     2.792000000     4.800000000
H     1.076000000     2.997000000     3.414000000
O    -1.460000000    -1.731000000     1.827000000
H    -1.152000000    -1.134000000     1.145000000
H    -0.889000000    -2.496000000     1.751000000
O     4.424000000     1.808000000    -2.386000000
H     4.442000000     2.457000000    -3.090000000
H     4.050000000     2.276000000    -1.639000000
O    -3.373000000     2.542000000    -5.324000000
H    -4.056000000     3.169000000    -5.086000000
H    -2.897000000     2.384000000    -4.509000000
O    -3.837000000     4.761000000     1.601000000
H    -3.242000000     5.476000000     1.826000000
H    -3.640000000     4.075000000     2.240000000
O    -4.633000000    -0.590000000    -1.223000000
H    -4.604000000    -1.350000000    -1.804000000
H    -4.522000000    -0.955000000    -0.345000000
O     1.830000000     1.397000000     5.693000000
H     1.649000000     0.482000000     5.476000000
H     1.370000000     1.542000000     6.520000000
O    -4.337000000    -1.836000000     1.311000000
H    -4.751000000    -2.231000000     2.078000000
H    -3.400000000    -1.860000000     1.504000000
O    -3.761000000     4.135000000     5.272000000
H    -3.675000000     5.073000000     5.104000000
H    -3.216000000     3.720000000     4.604000000
O     3.041000000    -4.916000000    -0.190000000
H     3.017000000    -5.769000000    -0.625000000
H     2.127000000    -4.736000000     0.033000000
O    -2.461000000     2.956000000     3.297000000
H    -1.511000000     2.999000000     3.402000000
H    -2.634000000     2.051000000     3.039000000
O    -1.671000000    -1.204000000     4.853000000
H    -1.731000000    -1.333000000     5.799000000
H    -0.805000000    -1.538000000     4.620000000
O     0.589000000    -3.503000000     2.488000000
H     0.287000000    -3.858000000     3.324000000
H     0.345000000    -4.166000000     1.843000000
O     5.030000000    -2.475000000    -3.401000000
H     5.051000000    -1.716000000    -3.983000000
H     4.234000000    -2.357000000    -2.882000000
O     1.059000000    -1.225000000     4.252000000
H     1.668000000    -0.614000000     3.837000000
H     0.838000000    -1.850000000     3.562000000
O     7.461000000     0.946000000     1.366000000
H     6.903000000     0.909000000     0.589000000
H     7.132000000     1.695000000     1.862000000
O     3.600000000     4.544000000     2.532000000
H     3.094000000     3.748000000     2.366000000
H     3.488000000     4.708000000     3.468000000
O    -1.753000000     3.278000000    -3.193000000
H    -0.932000000     3.767000000    -3.128000000
H    -2.251000000     3.542000000    -2.420000000
O     2.400000000    -1.686000000    -3.350000000
H     2.944000000    -1.052000000    -3.817000000
H     1.566000000    -1.235000000    -3.218000000
O     4.335000000     1.600000000     4.312000000
H     3.827000000     1.120000000     3.658000000
H     3.692000000     1.855000000     4.974000000
O     5.173000000    -2.300000000     5.059000000
H     5.981000000    -1.929000000     4.706000000
H     4.730000000    -2.677000000     4.299000000
O     3.138000000    -1.816000000     7.053000000
H     3.271000000    -2.208000000     6.190000000
H     4.022000000    -1.703000000     7.404000000
O    -5.728000000    -1.765000000    -5.945000000
H    -5.613000000    -0.910000000    -5.532000000
H    -6.607000000    -1.734000000    -6.321000000
O    -3.605000000     3.890000000    -1.052000000
H    -3.634000000     4.103000000    -0.119000000
H    -4.398000000     3.376000000    -1.204000000
O    -1.038000000     5.510000000     5.260000000
H    -0.360000000     5.644000000     5.921000000
H    -1.355000000     4.621000000     5.419000000
O     5.408000000     6.058000000     0.864000000
H     4.879000000     5.355000000     1.242000000
H     5.568000000     6.655000000     1.595000000
