158
-3028.36070
C     1.401000000     0.332000000     0.253000000
H     2.465000000     0.449000000     0.442000000
C     0.830000000    -0.917000000     0.097000000
H     1.443000000    -1.814000000     0.093000000
C    -0.522000000    -1.153000000    -0.102000000
H    -0.849000000    -2.202000000    -0.232000000
C    -1.295000000     0.005000000    -0.167000000
H    -2.370000000    -0.113000000    -0.277000000
C    -0.733000000     1.329000000    -0.185000000
H    -1.365000000     2.190000000    -0.386000000
C     0.635000000     1.441000000     0.066000000
C     1.270000000     2.770000000     0.089000000
O     2.334000000     2.921000000     0.605000000
O     0.686000000     3.770000000    -0.375000000
O     6.321000000    -2.960000000     0.352000000
H     5.398000000    -2.933000000     0.100000000
H     6.372000000    -2.410000000     1.134000000
O    -6.091000000    -4.338000000    -1.798000000
H    -5.782000000    -3.988000000    -2.634000000
H    -6.541000000    -3.602000000    -1.382000000
O    -3.843000000    -0.870000000    -3.391000000
H    -3.036000000    -1.213000000    -3.774000000
H    -4.304000000    -1.645000000    -3.069000000
O     2.084000000    -4.135000000     1.534000000
H     2.909000000    -4.400000000     1.941000000
H     1.641000000    -3.618000000     2.206000000
O     0.500000000     6.097000000    -3.779000000
H    -0.220000000     5.491000000    -3.600000000
H     0.936000000     5.729000000    -4.548000000
O    -3.735000000    -0.883000000     4.963000000
H    -3.349000000    -0.183000000     5.489000000
H    -3.383000000    -0.744000000     4.084000000
O    -5.698000000    -0.017000000     1.575000000
H    -5.482000000     0.161000000     0.660000000
H    -6.542000000    -0.468000000     1.539000000
O     5.254000000     0.959000000     2.958000000
H     4.511000000     0.825000000     3.546000000
H     5.742000000     1.683000000     3.350000000
O     1.139000000    -1.031000000     5.488000000
H     0.890000000    -0.546000000     4.701000000
H     0.367000000    -0.986000000     6.052000000
O    -1.885000000    -5.189000000     1.231000000
H    -2.196000000    -5.800000000     1.898000000
H    -2.672000000    -4.943000000     0.746000000
O    -2.810000000    -4.567000000    -5.303000000
H    -2.659000000    -4.490000000    -4.361000000
H    -3.395000000    -5.319000000    -5.391000000
O    -1.063000000    -2.080000000    -3.619000000
H    -0.480000000    -1.321000000    -3.601000000
H    -0.476000000    -2.831000000    -3.701000000
O     5.036000000    -4.980000000    -2.272000000
H     4.904000000    -4.177000000    -1.769000000
H     4.345000000    -4.963000000    -2.934000000
O    -0.857000000    -3.003000000     2.355000000
H    -1.629000000    -2.606000000     1.952000000
H    -0.903000000    -3.926000000     2.104000000
O     2.997000000     2.723000000    -2.702000000
H     2.797000000     3.362000000    -2.018000000
H     3.769000000     3.078000000    -3.143000000
O     3.908000000    -2.745000000    -0.816000000
H     4.104000000    -2.041000000    -1.434000000
H     3.124000000    -2.447000000    -0.354000000
O     3.483000000     6.800000000    -1.968000000
H     2.775000000     7.440000000    -1.891000000
H     3.466000000     6.324000000    -1.138000000
O    -4.276000000     1.248000000    -4.954000000
H    -4.172000000     0.534000000    -4.325000000
H    -3.381000000     1.494000000    -5.188000000
O     1.097000000     1.950000000    -5.050000000
H     0.920000000     2.190000000    -4.140000000
H     2.048000000     2.018000000    -5.134000000
O    -2.255000000     4.897000000    -3.296000000
H    -2.007000000     4.718000000    -4.203000000
H    -2.878000000     5.621000000    -3.356000000
O    -2.004000000     3.207000000     2.471000000
H    -1.272000000     3.814000000     2.357000000
H    -2.784000000     3.744000000     2.338000000
O    -4.535000000     4.124000000     1.554000000
H    -4.662000000     4.414000000     0.651000000
H    -5.302000000     3.584000000     1.743000000
O    -3.034000000     0.475000000     2.755000000
H    -2.787000000     1.382000000     2.575000000
H    -3.726000000     0.284000000     2.121000000
O    -4.473000000    -5.032000000     3.208000000
H    -3.995000000    -5.861000000     3.181000000
H    -4.003000000    -4.464000000     2.597000000
O     0.573000000    -4.021000000    -3.345000000
H     0.592000000    -4.365000000    -2.452000000
H     1.359000000    -4.381000000    -3.757000000
O    -5.257000000     0.167000000    -1.176000000
H    -5.969000000     0.585000000    -1.661000000
H    -4.613000000    -0.062000000    -1.847000000
O     0.376000000     4.929000000     2.135000000
H     1.045000000     4.540000000     2.699000000
H     0.542000000     4.552000000     1.271000000
O    -3.636000000    -2.735000000     1.271000000
H    -3.499000000    -3.121000000     0.406000000
H    -4.282000000    -2.043000000     1.125000000
O     4.907000000     1.823000000     0.158000000
H     4.985000000     1.446000000     1.034000000
H     4.490000000     2.673000000     0.299000000
O    -1.632000000     6.811000000     2.084000000
H    -0.826000000     6.299000000     2.156000000
H    -2.060000000     6.475000000     1.297000000
O    -0.095000000     3.278000000    -2.800000000
H     0.148000000     3.528000000    -1.909000000
H    -0.934000000     3.712000000    -2.952000000
O    -3.755000000    -5.060000000    -0.592000000
H    -3.447000000    -5.745000000    -1.185000000
H    -4.604000000    -4.798000000    -0.949000000
O     0.467000000    -5.231000000    -0.708000000
H     0.965000000    -4.721000000    -0.069000000
H    -0.370000000    -5.403000000    -0.276000000
O     7.420000000     2.905000000    -0.689000000
H     6.614000000     2.579000000    -0.287000000
H     7.130000000     3.610000000    -1.268000000
O     2.246000000     3.174000000     3.333000000
H     2.334000000     3.167000000     2.380000000
H     3.035000000     2.735000000     3.650000000
O     3.840000000    -0.143000000    -1.671000000
H     4.368000000     0.497000000    -1.193000000
H     3.117000000     0.367000000    -2.035000000
O     0.054000000     2.689000000     5.101000000
H     0.617000000     2.862000000     4.346000000
H    -0.451000000     1.916000000     4.852000000
O    -0.515000000     0.174000000     3.421000000
H    -0.274000000     0.126000000     2.495000000
H    -1.464000000     0.294000000     3.415000000
O     1.037000000    -0.022000000    -2.932000000
H     1.019000000     0.929000000    -2.818000000
H     0.854000000    -0.371000000    -2.060000000
O     0.366000000     6.421000000    -0.883000000
H     0.845000000     5.639000000    -0.607000000
H     0.290000000     6.332000000    -1.833000000
O    -2.464000000     6.195000000    -0.480000000
H    -1.514000000     6.301000000    -0.430000000
H    -2.611000000     5.721000000    -1.298000000
O     5.983000000    -1.686000000     2.923000000
H     6.677000000    -1.620000000     3.580000000
H     5.607000000    -0.806000000     2.884000000
O     2.462000000    -1.484000000    -5.015000000
H     1.645000000    -1.523000000    -5.512000000
H     2.209000000    -1.124000000    -4.165000000
O     3.710000000     5.121000000     0.086000000
H     3.077000000     4.434000000     0.293000000
H     4.295000000     5.144000000     0.844000000
O     0.889000000    -3.768000000     4.533000000
H     1.272000000    -3.089000000     5.088000000
H     0.345000000    -3.289000000     3.907000000
O     5.547000000     4.516000000     2.196000000
H     5.970000000     3.755000000     2.593000000
H     6.137000000     5.245000000     2.387000000
O     1.094000000    -7.958000000    -0.483000000
H     1.817000000    -7.970000000     0.144000000
H     0.836000000    -7.037000000    -0.533000000
O     1.968000000     8.360000000    -0.011000000
H     2.049000000     8.698000000     0.880000000
H     1.409000000     7.587000000     0.075000000
