158
-3015.58521
C     1.009000000    -0.148000000     1.039000000
H     1.770000000    -0.343000000     1.790000000
C    -0.010000000    -1.079000000     0.819000000
H     0.051000000    -1.972000000     1.436000000
C    -0.816000000    -0.882000000    -0.255000000
H    -1.575000000    -1.692000000    -0.469000000
C    -0.669000000     0.227000000    -1.102000000
H    -1.290000000     0.360000000    -1.984000000
C     0.237000000     1.219000000    -0.792000000
H     0.253000000     2.094000000    -1.437000000
C     1.087000000     1.032000000     0.328000000
C     1.989000000     2.164000000     0.733000000
O     2.774000000     2.083000000     1.661000000
O     1.988000000     3.233000000     0.138000000
O     6.066000000    -2.992000000     0.410000000
H     5.376000000    -2.353000000     0.234000000
H     6.639000000    -2.558000000     1.042000000
O    -7.543000000    -3.298000000    -0.528000000
H    -6.874000000    -3.978000000    -0.609000000
H    -7.078000000    -2.482000000    -0.712000000
O    -1.776000000     1.439000000    -5.161000000
H    -2.111000000     0.584000000    -5.429000000
H    -1.994000000     2.021000000    -5.890000000
O    -2.950000000    -1.211000000    -5.851000000
H    -3.126000000    -2.068000000    -6.239000000
H    -3.750000000    -0.996000000    -5.370000000
O     4.025000000    -2.549000000     2.840000000
H     4.088000000    -3.351000000     3.359000000
H     3.638000000    -2.831000000     2.011000000
O    -4.389000000    -1.306000000     1.797000000
H    -4.197000000    -0.915000000     0.944000000
H    -5.139000000    -0.809000000     2.124000000
O     5.765000000    -0.481000000     2.406000000
H     5.251000000    -1.130000000     2.886000000
H     5.703000000     0.314000000     2.936000000
O     4.341000000     2.834000000    -4.520000000
H     5.082000000     2.685000000    -3.933000000
H     3.622000000     3.084000000    -3.939000000
O     1.747000000    -2.487000000     5.612000000
H     1.124000000    -2.381000000     4.893000000
H     2.597000000    -2.573000000     5.180000000
O    -3.415000000    -7.229000000     1.514000000
H    -3.487000000    -7.288000000     2.467000000
H    -3.557000000    -6.302000000     1.321000000
O    -1.106000000    -6.705000000    -3.066000000
H    -0.685000000    -7.319000000    -2.464000000
H    -2.036000000    -6.753000000    -2.846000000
O    -0.292000000    -0.843000000    -4.537000000
H    -0.465000000     0.073000000    -4.752000000
H    -1.146000000    -1.271000000    -4.609000000
O     1.926000000    -5.837000000     1.112000000
H     2.089000000    -4.894000000     1.105000000
H     1.628000000    -6.035000000     0.224000000
O     0.669000000    -5.500000000     3.463000000
H    -0.240000000    -5.217000000     3.359000000
H     0.995000000    -5.589000000     2.567000000
O     2.849000000     3.713000000    -2.209000000
H     2.458000000     3.465000000    -1.371000000
H     3.501000000     4.376000000    -1.981000000
O     2.293000000    -3.045000000     0.238000000
H     2.828000000    -2.260000000     0.127000000
H     1.718000000    -3.054000000    -0.527000000
O    -3.165000000     2.437000000    -2.406000000
H    -2.410000000     1.999000000    -2.799000000
H    -3.163000000     3.312000000    -2.794000000
O    -5.786000000    -3.657000000    -4.148000000
H    -5.460000000    -2.771000000    -4.304000000
H    -6.473000000    -3.778000000    -4.803000000
O    -0.809000000     4.483000000    -3.291000000
H    -0.469000000     5.132000000    -3.907000000
H    -1.733000000     4.713000000    -3.186000000
O    -1.515000000     1.438000000     2.669000000
H    -1.110000000     1.022000000     1.908000000
H    -1.663000000     2.344000000     2.397000000
O    -2.761000000    -0.615000000     3.980000000
H    -2.552000000     0.219000000     3.559000000
H    -3.440000000    -0.999000000     3.426000000
O    -5.061000000    -4.987000000     3.885000000
H    -4.335000000    -5.589000000     4.051000000
H    -4.966000000    -4.746000000     2.964000000
O     0.689000000    -5.339000000    -1.759000000
H    -0.008000000    -5.844000000    -2.178000000
H     1.025000000    -4.772000000    -2.454000000
O    -5.742000000     2.550000000    -3.005000000
H    -4.806000000     2.559000000    -2.804000000
H    -5.805000000     2.074000000    -3.833000000
O    -4.291000000     0.645000000    -0.269000000
H    -4.584000000     1.185000000     0.465000000
H    -4.094000000     1.272000000    -0.965000000
O    -0.413000000     4.519000000     2.920000000
H     0.215000000     4.224000000     3.579000000
H     0.007000000     5.274000000     2.509000000
O    -4.124000000    -4.313000000     1.111000000
H    -4.352000000    -4.269000000     0.182000000
H    -4.113000000    -3.399000000     1.398000000
O     5.167000000     1.798000000     0.268000000
H     5.069000000     0.852000000     0.371000000
H     4.360000000     2.164000000     0.630000000
O    -6.489000000    -0.959000000    -1.035000000
H    -7.142000000    -0.512000000    -0.497000000
H    -5.733000000    -0.372000000    -1.030000000
O     1.266000000     2.291000000    -3.849000000
H     1.873000000     2.577000000    -3.166000000
H     0.531000000     2.901000000    -3.788000000
O    -5.056000000    -4.512000000    -1.778000000
H    -5.045000000    -5.365000000    -2.212000000
H    -5.002000000    -3.878000000    -2.493000000
O     1.608000000     4.612000000     4.846000000
H     2.564000000     4.608000000     4.799000000
H     1.413000000     4.953000000     5.719000000
O     4.208000000     5.229000000     4.109000000
H     3.657000000     5.827000000     3.602000000
H     5.049000000     5.233000000     3.652000000
O     2.347000000     1.203000000     4.302000000
H     2.248000000     1.490000000     3.394000000
H     3.293000000     1.130000000     4.427000000
O     4.278000000    -1.175000000    -0.759000000
H     5.051000000    -1.131000000    -1.322000000
H     3.553000000    -0.915000000    -1.327000000
O    -2.640000000     3.563000000     0.767000000
H    -2.638000000     3.025000000    -0.025000000
H    -1.833000000     4.074000000     0.711000000
O    -0.264000000     1.597000000     5.457000000
H     0.589000000     1.980000000     5.250000000
H    -0.686000000     1.478000000     4.606000000
O    -0.299000000    -1.788000000     4.135000000
H    -0.019000000    -1.228000000     3.410000000
H    -1.181000000    -1.483000000     4.345000000
O     1.888000000    -1.155000000    -2.176000000
H     1.509000000    -0.751000000    -2.956000000
H     1.680000000    -0.548000000    -1.466000000
O     6.085000000     2.345000000    -2.180000000
H     6.712000000     1.623000000    -2.157000000
H     5.498000000     2.176000000    -1.444000000
O     1.313000000     6.411000000    -3.733000000
H     1.480000000     5.746000000    -3.065000000
H     2.072000000     6.362000000    -4.314000000
O     0.093000000     5.135000000    -0.148000000
H     0.623000000     4.363000000     0.053000000
H    -0.001000000     5.120000000    -1.100000000
O     3.846000000     5.342000000     0.690000000
H     3.200000000     4.642000000     0.795000000
H     4.591000000     5.061000000     1.221000000
O     6.523000000     4.548000000     2.243000000
H     7.127000000     4.515000000     2.985000000
H     6.931000000     5.160000000     1.630000000
O     5.149000000     2.239000000     3.287000000
H     5.697000000     2.985000000     3.042000000
H     4.267000000     2.489000000     3.012000000
O     2.345000000    -3.642000000    -3.340000000
H     3.302000000    -3.670000000    -3.305000000
H     2.123000000    -2.747000000    -3.086000000
O     5.161000000     5.584000000    -2.071000000
H     4.991000000     5.856000000    -1.170000000
H     6.107000000     5.441000000    -2.104000000
O     2.601000000     7.809000000     0.969000000
H     2.271000000     7.576000000     1.836000000
H     2.764000000     6.968000000     0.541000000
