158
-3022.37261
C     0.900000000    -0.604000000     0.932000000
H     1.492000000    -1.278000000     1.545000000
C    -0.179000000    -1.226000000     0.417000000
H    -0.377000000    -2.266000000     0.663000000
C    -1.001000000    -0.505000000    -0.469000000
H    -1.819000000    -1.068000000    -0.902000000
C    -0.645000000     0.805000000    -0.802000000
H    -1.189000000     1.381000000    -1.547000000
C     0.463000000     1.419000000    -0.222000000
H     0.564000000     2.466000000    -0.497000000
C     1.272000000     0.675000000     0.649000000
C     2.608000000     1.229000000     1.147000000
O     3.316000000     0.466000000     1.755000000
O     2.856000000     2.394000000     1.049000000
O    -1.985000000    -4.558000000    -5.950000000
H    -1.645000000    -5.418000000    -5.703000000
H    -2.582000000    -4.323000000    -5.240000000
O     0.321000000     0.120000000    -4.637000000
H     0.017000000    -0.710000000    -5.003000000
H     1.075000000     0.359000000    -5.177000000
O    -1.147000000    -2.142000000    -6.523000000
H    -1.287000000    -1.746000000    -7.383000000
H    -1.650000000    -2.955000000    -6.548000000
O    -5.966000000    -1.209000000     1.181000000
H    -5.078000000    -1.145000000     0.829000000
H    -6.171000000    -0.321000000     1.476000000
O     5.642000000    -3.359000000     2.881000000
H     6.594000000    -3.453000000     2.900000000
H     5.311000000    -4.244000000     3.030000000
O    -3.693000000     1.913000000    -4.539000000
H    -3.715000000     1.823000000    -5.492000000
H    -3.636000000     2.856000000    -4.388000000
O     7.744000000    -0.444000000     3.975000000
H     7.283000000    -1.203000000     4.332000000
H     7.047000000     0.141000000     3.676000000
O    -3.801000000    -4.538000000     1.946000000
H    -4.696000000    -4.255000000     2.132000000
H    -3.291000000    -3.728000000     1.931000000
O     4.929000000    -1.582000000     0.903000000
H     4.975000000    -2.094000000     1.711000000
H     4.213000000    -0.965000000     1.051000000
O     0.066000000    -4.783000000     1.584000000
H    -0.150000000    -5.695000000     1.388000000
H     0.415000000    -4.438000000     0.762000000
O     2.479000000    -4.320000000     3.289000000
H     2.457000000    -3.364000000     3.253000000
H     1.568000000    -4.576000000     3.428000000
O     2.799000000     1.343000000    -2.357000000
H     2.418000000     0.904000000    -1.597000000
H     3.147000000     0.633000000    -2.895000000
O     1.073000000     6.975000000     2.657000000
H     1.449000000     6.182000000     2.275000000
H     1.702000000     7.664000000     2.446000000
O    -6.349000000     2.478000000    -1.086000000
H    -6.589000000     3.308000000    -1.499000000
H    -5.484000000     2.640000000    -0.709000000
O    -3.344000000    -0.754000000    -3.625000000
H    -3.952000000    -0.017000000    -3.687000000
H    -2.619000000    -0.515000000    -4.203000000
O    -3.438000000    -3.824000000    -3.706000000
H    -3.029000000    -3.015000000    -3.398000000
H    -3.993000000    -3.548000000    -4.436000000
O    -0.704000000     2.752000000    -3.851000000
H    -0.476000000     1.870000000    -4.144000000
H    -1.570000000     2.913000000    -4.225000000
O    -2.407000000    -1.927000000     2.296000000
H    -1.453000000    -1.905000000     2.217000000
H    -2.697000000    -1.092000000     1.927000000
O    -4.040000000     3.044000000     0.609000000
H    -3.303000000     3.653000000     0.665000000
H    -4.567000000     3.233000000     1.385000000
O     0.430000000    -5.112000000    -0.988000000
H     0.101000000    -5.933000000    -1.353000000
H     0.623000000    -4.569000000    -1.753000000
O    -3.377000000     0.324000000     0.840000000
H    -3.622000000     1.147000000     0.417000000
H    -2.594000000     0.037000000     0.370000000
O     1.485000000     3.536000000     3.401000000
H     1.711000000     3.225000000     2.524000000
H     2.329000000     3.662000000     3.835000000
O    -3.213000000    -6.836000000     0.539000000
H    -3.532000000    -6.549000000    -0.316000000
H    -3.319000000    -6.070000000     1.104000000
O     4.170000000    -1.217000000    -1.949000000
H     4.298000000    -1.437000000    -1.026000000
H     3.449000000    -1.780000000    -2.230000000
O    -5.258000000    -2.507000000    -1.589000000
H    -6.057000000    -2.198000000    -1.163000000
H    -5.042000000    -1.820000000    -2.220000000
O    -1.024000000     4.571000000     3.263000000
H    -0.157000000     4.204000000     3.435000000
H    -1.163000000     4.431000000     2.327000000
O     1.433000000    -1.239000000    -2.405000000
H     1.211000000    -0.956000000    -1.518000000
H     0.942000000    -0.647000000    -2.974000000
O    -4.380000000    -5.762000000    -1.908000000
H    -4.224000000    -6.386000000    -2.616000000
H    -4.222000000    -4.905000000    -2.305000000
O     0.358000000     7.062000000    -0.290000000
H     1.057000000     6.460000000    -0.036000000
H    -0.206000000     6.546000000    -0.865000000
O     3.549000000     4.098000000     4.772000000
H     4.502000000     4.180000000     4.732000000
H     3.313000000     4.459000000     5.627000000
O     6.195000000     4.116000000     4.626000000
H     7.045000000     4.442000000     4.920000000
H     6.293000000     4.010000000     3.680000000
O     3.416000000    -1.569000000     3.303000000
H     3.559000000    -0.849000000     2.690000000
H     4.296000000    -1.879000000     3.518000000
O    -2.312000000     1.388000000     3.540000000
H    -1.958000000     1.853000000     2.782000000
H    -1.565000000     1.289000000     4.131000000
O     4.875000000     1.198000000     5.556000000
H     5.324000000     1.110000000     4.716000000
H     4.188000000     1.845000000     5.394000000
O    -1.876000000     4.878000000     0.674000000
H    -1.336000000     4.708000000    -0.098000000
H    -1.824000000     5.825000000     0.800000000
O     5.913000000    -4.111000000    -0.252000000
H     5.531000000    -4.141000000    -1.129000000
H     5.596000000    -3.287000000     0.119000000
O    -0.380000000     4.455000000    -1.442000000
H    -0.608000000     3.985000000    -2.245000000
H     0.551000000     4.656000000    -1.538000000
O     0.515000000     1.916000000     5.342000000
H     0.760000000     1.008000000     5.162000000
H     0.963000000     2.423000000     4.665000000
O    -0.225000000    -2.720000000     3.840000000
H    -0.386000000    -3.028000000     4.732000000
H    -0.534000000    -3.433000000     3.281000000
O     1.973000000    -3.544000000    -3.615000000
H     1.701000000    -2.664000000    -3.356000000
H     1.529000000    -3.697000000    -4.448000000
O     1.822000000     3.825000000    -2.941000000
H     2.567000000     3.229000000    -2.867000000
H     1.111000000     3.278000000    -3.275000000
O     1.224000000    -0.897000000     5.501000000
H     0.496000000    -1.408000000     5.147000000
H     1.995000000    -1.229000000     5.041000000
O     2.565000000     5.252000000     0.539000000
H     2.578000000     4.498000000    -0.051000000
H     3.394000000     5.197000000     1.015000000
O    -8.053000000    -1.810000000    -0.561000000
H    -8.943000000    -1.706000000    -0.223000000
H    -7.504000000    -1.328000000     0.058000000
O     4.982000000     4.093000000     1.355000000
H     4.239000000     3.506000000     1.215000000
H     5.646000000     3.790000000     0.735000000
O     5.625000000     1.066000000     3.092000000
H     6.153000000     1.643000000     2.540000000
H     4.837000000     0.896000000     2.577000000
O     6.043000000     4.222000000    -2.438000000
H     6.422000000     3.790000000    -1.672000000
H     5.724000000     5.061000000    -2.106000000
O    -4.429000000    -2.208000000     4.136000000
H    -4.657000000    -1.324000000     4.426000000
H    -3.604000000    -2.099000000     3.663000000
