158
-3016.15529
C     0.109000000    -1.484000000     0.116000000
H     0.015000000    -2.546000000     0.329000000
C    -0.797000000    -0.824000000    -0.724000000
H    -1.527000000    -1.422000000    -1.262000000
C    -0.762000000     0.575000000    -0.860000000
H    -1.391000000     1.125000000    -1.522000000
C     0.197000000     1.293000000    -0.105000000
H     0.180000000     2.379000000    -0.141000000
C     1.137000000     0.598000000     0.808000000
H     1.750000000     1.186000000     1.487000000
C     1.044000000    -0.800000000     0.942000000
C     1.954000000    -1.526000000     1.933000000
O     1.773000000    -2.726000000     2.199000000
O     2.887000000    -0.906000000     2.345000000
O     4.307000000    -4.124000000     2.124000000
H     3.477000000    -3.660000000     2.232000000
H     4.202000000    -4.618000000     1.311000000
O    -3.675000000     0.938000000    -5.804000000
H    -3.444000000     0.708000000    -4.904000000
H    -4.132000000     1.776000000    -5.726000000
O    -0.279000000    -5.050000000    -0.880000000
H    -1.197000000    -5.067000000    -0.611000000
H    -0.119000000    -5.922000000    -1.242000000
O     6.807000000    -0.183000000    -0.760000000
H     6.612000000     0.692000000    -1.095000000
H     5.957000000    -0.620000000    -0.723000000
O    -2.976000000    -5.466000000    -0.043000000
H    -2.802000000    -6.320000000     0.352000000
H    -3.177000000    -5.662000000    -0.959000000
O    -3.891000000    -0.171000000    -0.315000000
H    -3.290000000     0.011000000     0.408000000
H    -4.584000000    -0.702000000     0.078000000
O     3.311000000    -2.994000000     7.103000000
H     4.182000000    -2.909000000     6.716000000
H     2.716000000    -3.010000000     6.353000000
O     3.519000000    -5.286000000     4.511000000
H     4.045000000    -5.024000000     3.756000000
H     2.913000000    -4.557000000     4.645000000
O    -0.965000000     1.497000000    -7.114000000
H    -1.788000000     1.029000000    -6.972000000
H    -1.065000000     2.311000000    -6.621000000
O    -6.808000000     2.549000000     0.260000000
H    -7.702000000     2.222000000     0.365000000
H    -6.584000000     2.345000000    -0.648000000
O    -7.512000000     0.762000000    -2.467000000
H    -7.098000000    -0.101000000    -2.456000000
H    -6.850000000     1.340000000    -2.847000000
O     4.542000000     1.158000000     1.551000000
H     3.918000000     1.453000000     0.888000000
H     4.108000000     0.416000000     1.974000000
O     0.342000000     5.252000000    -1.221000000
H     1.283000000     5.423000000    -1.260000000
H     0.072000000     5.591000000    -0.368000000
O    -1.922000000    -3.540000000    -4.443000000
H    -1.943000000    -2.769000000    -5.010000000
H    -1.679000000    -4.259000000    -5.025000000
O     1.110000000     2.831000000     3.591000000
H     0.313000000     2.903000000     4.115000000
H     1.644000000     2.185000000     4.053000000
O     3.334000000     0.528000000    -4.339000000
H     3.646000000    -0.284000000    -4.739000000
H     2.689000000     0.243000000    -3.691000000
O    -4.121000000    -2.827000000    -2.922000000
H    -3.443000000    -3.147000000    -3.518000000
H    -3.919000000    -3.244000000    -2.084000000
O     1.994000000     4.377000000     1.418000000
H     1.808000000     5.262000000     1.729000000
H     1.803000000     3.814000000     2.168000000
O     3.799000000     4.057000000    -0.660000000
H     3.894000000     3.132000000    -0.887000000
H     3.055000000     4.082000000    -0.059000000
O    -1.693000000     3.827000000     1.856000000
H    -1.980000000     4.300000000     2.637000000
H    -0.738000000     3.881000000     1.880000000
O     1.759000000    -0.772000000    -2.426000000
H     1.036000000    -0.627000000    -1.816000000
H     1.906000000    -1.718000000    -2.403000000
O     2.654000000    -5.911000000     0.315000000
H     2.216000000    -6.611000000     0.800000000
H     2.092000000    -5.147000000     0.439000000
O     2.429000000     0.657000000     4.641000000
H     2.900000000     0.381000000     5.428000000
H     2.618000000    -0.026000000     3.997000000
O    -3.124000000    -3.990000000     2.043000000
H    -3.175000000    -4.664000000     1.365000000
H    -2.204000000    -3.723000000     2.047000000
O     4.326000000    -2.006000000    -0.946000000
H     4.238000000    -2.945000000    -0.780000000
H     3.644000000    -1.603000000    -0.408000000
O    -1.223000000     4.293000000    -5.882000000
H    -1.848000000     4.720000000    -5.296000000
H    -0.379000000     4.383000000    -5.439000000
O    -4.889000000     6.230000000     0.538000000
H    -5.086000000     5.371000000     0.166000000
H    -4.431000000     6.038000000     1.357000000
O    -3.789000000     0.366000000    -2.888000000
H    -3.670000000     0.454000000    -1.942000000
H    -3.550000000    -0.541000000    -3.076000000
O    -3.259000000     2.580000000    -0.428000000
H    -3.588000000     1.686000000    -0.342000000
H    -2.621000000     2.669000000     0.280000000
O    -0.190000000     6.537000000     1.222000000
H    -0.909000000     7.142000000     1.038000000
H     0.413000000     7.040000000     1.769000000
O     4.259000000     0.074000000     6.593000000
H     4.249000000     0.814000000     7.200000000
H     4.897000000    -0.534000000     6.967000000
O     3.865000000     3.122000000     5.408000000
H     2.908000000     3.106000000     5.384000000
H     4.123000000     2.205000000     5.315000000
O    -2.600000000     0.708000000     1.805000000
H    -2.650000000     0.137000000     2.572000000
H    -1.679000000     0.964000000     1.756000000
O    -4.839000000     2.762000000     2.455000000
H    -5.586000000     2.446000000     1.946000000
H    -4.191000000     3.016000000     1.797000000
O     3.981000000    -4.470000000    -1.539000000
H     3.348000000    -5.014000000    -1.070000000
H     4.205000000    -4.981000000    -2.317000000
O    -2.644000000    -1.361000000     3.795000000
H    -2.133000000    -1.964000000     3.256000000
H    -1.989000000    -0.862000000     4.283000000
O    -0.465000000    -0.152000000     5.143000000
H    -0.777000000    -0.305000000     6.035000000
H     0.489000000    -0.182000000     5.215000000
O    -0.151000000    -6.172000000     3.015000000
H    -0.360000000    -6.416000000     3.916000000
H     0.428000000    -6.870000000     2.706000000
O    -6.636000000    -1.968000000    -2.115000000
H    -6.742000000    -2.504000000    -1.329000000
H    -5.748000000    -2.160000000    -2.417000000
O    -0.626000000    -3.538000000     3.002000000
H     0.157000000    -3.431000000     2.462000000
H    -0.763000000    -4.484000000     3.041000000
O     5.818000000    -1.701000000     2.830000000
H     5.713000000    -2.643000000     2.698000000
H     4.937000000    -1.344000000     2.718000000
O     1.049000000     4.944000000    -3.958000000
H     0.548000000     4.801000000    -3.155000000
H     1.736000000     5.561000000    -3.706000000
O     3.343000000     1.498000000    -1.342000000
H     2.833000000     0.922000000    -1.911000000
H     4.221000000     1.493000000    -1.721000000
O     0.466000000    -3.441000000    -2.979000000
H     0.248000000    -4.089000000    -2.308000000
H    -0.374000000    -3.230000000    -3.388000000
O     2.053000000    -3.054000000     4.858000000
H     1.106000000    -3.142000000     4.964000000
H     2.178000000    -2.932000000     3.917000000
O    -5.430000000     2.592000000    -2.364000000
H    -4.692000000     2.879000000    -1.827000000
H    -5.194000000     1.706000000    -2.640000000
O    -2.397000000     6.091000000    -1.717000000
H    -2.904000000     5.472000000    -1.191000000
H    -1.567000000     5.643000000    -1.879000000
O     6.859000000     1.274000000     2.781000000
H     7.341000000     1.783000000     2.128000000
H     5.962000000     1.246000000     2.448000000
