158
-3024.96945
C     0.878000000    -0.636000000    -1.027000000
H     1.465000000    -1.254000000    -1.702000000
C    -0.409000000    -1.015000000    -0.759000000
H    -0.814000000    -1.974000000    -1.069000000
C    -1.131000000    -0.346000000     0.172000000
H    -2.147000000    -0.610000000     0.273000000
C    -0.716000000     0.880000000     0.648000000
H    -1.352000000     1.480000000     1.295000000
C     0.680000000     1.163000000     0.504000000
H     1.129000000     2.053000000     0.937000000
C     1.506000000     0.353000000    -0.279000000
C     2.964000000     0.717000000    -0.314000000
O     3.727000000     0.145000000    -1.026000000
O     3.436000000     1.444000000     0.495000000
O    -0.582000000    -2.183000000     2.495000000
H    -0.488000000    -1.561000000     1.774000000
H    -1.522000000    -2.353000000     2.544000000
O     1.434000000     2.381000000    -3.206000000
H     1.617000000     2.873000000    -2.406000000
H     0.513000000     2.130000000    -3.127000000
O    -3.412000000     0.894000000     2.929000000
H    -3.240000000     0.010000000     3.255000000
H    -3.755000000     0.760000000     2.045000000
O    -5.809000000     0.618000000    -4.500000000
H    -6.584000000     0.865000000    -3.996000000
H    -5.071000000     0.904000000    -3.961000000
O     3.726000000    -2.787000000     2.920000000
H     4.638000000    -2.516000000     3.022000000
H     3.505000000    -2.551000000     2.020000000
O    -2.233000000     4.305000000     4.622000000
H    -2.573000000     3.482000000     4.972000000
H    -2.847000000     4.542000000     3.927000000
O    -5.086000000     0.292000000     0.676000000
H    -5.923000000     0.754000000     0.620000000
H    -4.984000000    -0.123000000    -0.180000000
O    -0.062000000     0.880000000     4.581000000
H    -0.148000000    -0.024000000     4.884000000
H     0.832000000     0.935000000     4.242000000
O     5.413000000    -3.779000000    -1.854000000
H     5.340000000    -4.440000000    -2.543000000
H     6.322000000    -3.837000000    -1.561000000
O     4.908000000    -0.153000000     4.298000000
H     5.260000000    -1.042000000     4.339000000
H     5.675000000     0.413000000     4.390000000
O    -0.039000000     6.647000000    -0.283000000
H    -0.630000000     7.340000000     0.011000000
H     0.398000000     6.349000000     0.515000000
O    -3.672000000     4.529000000     1.322000000
H    -4.071000000     4.570000000     0.453000000
H    -2.763000000     4.281000000     1.157000000
O    -3.872000000     1.711000000    -2.324000000
H    -2.964000000     1.496000000    -2.533000000
H    -4.221000000     0.915000000    -1.923000000
O     0.261000000    -4.614000000     3.629000000
H     0.944000000    -4.292000000     4.217000000
H    -0.058000000    -3.831000000     3.180000000
O     5.346000000     2.531000000     1.847000000
H     4.608000000     2.172000000     1.354000000
H     5.596000000     1.829000000     2.447000000
O     4.627000000     1.998000000    -5.903000000
H     4.687000000     1.859000000    -4.958000000
H     4.275000000     1.175000000    -6.244000000
O    -4.358000000    -1.131000000    -1.534000000
H    -3.706000000    -1.813000000    -1.700000000
H    -5.055000000    -1.308000000    -2.167000000
O    -5.166000000    -2.227000000     2.401000000
H    -5.342000000    -1.444000000     1.879000000
H    -4.312000000    -2.061000000     2.801000000
O     6.719000000     4.669000000     0.750000000
H     6.295000000     5.457000000     1.090000000
H     6.276000000     3.947000000     1.195000000
O    -1.162000000     1.362000000    -2.737000000
H    -1.103000000     0.814000000    -1.955000000
H    -0.801000000     0.819000000    -3.438000000
O     3.905000000     4.604000000     3.139000000
H     4.395000000     3.904000000     2.708000000
H     4.359000000     5.407000000     2.881000000
O    -5.379000000    -4.546000000     4.156000000
H    -6.241000000    -4.948000000     4.264000000
H    -5.526000000    -3.826000000     3.543000000
O     7.959000000    -0.808000000     0.618000000
H     7.548000000    -1.668000000     0.704000000
H     7.512000000    -0.402000000    -0.125000000
O     2.834000000    -3.557000000    -5.038000000
H     2.510000000    -2.980000000    -5.730000000
H     3.747000000    -3.296000000    -4.917000000
O     6.825000000    -0.743000000    -3.793000000
H     5.909000000    -0.996000000    -3.679000000
H     6.789000000     0.061000000    -4.310000000
O     4.104000000     1.617000000    -3.271000000
H     3.305000000     2.028000000    -3.601000000
H     3.857000000     1.268000000    -2.414000000
O    -0.229000000    -5.215000000    -1.795000000
H    -0.781000000    -5.997000000    -1.780000000
H    -0.188000000    -4.969000000    -2.719000000
O     0.184000000     3.493000000     3.361000000
H     0.448000000     2.632000000     3.686000000
H    -0.663000000     3.656000000     3.776000000
O     1.923000000     3.993000000    -0.706000000
H     1.914000000     4.740000000    -0.108000000
H     2.649000000     3.450000000    -0.400000000
O     1.618000000    -4.274000000     0.228000000
H     0.816000000    -4.296000000    -0.293000000
H     1.315000000    -4.187000000     1.132000000
O     4.160000000    -0.826000000    -5.829000000
H     4.857000000    -1.334000000    -6.244000000
H     4.170000000    -1.108000000    -4.914000000
O    -3.207000000    -5.881000000     3.327000000
H    -4.001000000    -5.546000000     3.744000000
H    -3.127000000    -5.372000000     2.520000000
O    -0.327000000    -0.382000000    -4.521000000
H    -0.586000000    -1.302000000    -4.575000000
H     0.202000000    -0.235000000    -5.305000000
O    -7.152000000     0.961000000     3.472000000
H    -7.692000000     1.567000000     3.981000000
H    -6.388000000     1.478000000     3.217000000
O    -3.139000000    -3.708000000    -1.523000000
H    -2.447000000    -3.694000000    -2.183000000
H    -3.760000000    -4.364000000    -1.841000000
O     1.369000000     5.445000000     1.829000000
H     2.251000000     5.104000000     1.979000000
H     0.791000000     4.807000000     2.247000000
O    -2.871000000    -3.763000000     1.324000000
H    -3.744000000    -3.371000000     1.337000000
H    -2.708000000    -3.953000000     0.400000000
O    -2.256000000     4.047000000    -2.990000000
H    -1.531000000     3.546000000    -2.616000000
H    -3.012000000     3.463000000    -2.921000000
O    -0.996000000     4.162000000    -0.097000000
H    -0.891000000     5.051000000    -0.435000000
H    -0.146000000     3.747000000    -0.247000000
O    -5.065000000     3.031000000     3.007000000
H    -4.504000000     2.255000000     2.992000000
H    -4.723000000     3.587000000     2.307000000
O     4.312000000    -1.704000000    -3.341000000
H     4.037000000    -1.085000000    -2.664000000
H     4.436000000    -2.530000000    -2.873000000
O     2.380000000     0.600000000     3.256000000
H     2.768000000     0.986000000     2.471000000
H     3.110000000     0.165000000     3.697000000
O    -2.506000000     1.830000000     5.702000000
H    -1.935000000     1.511000000     5.004000000
H    -3.392000000     1.715000000     5.358000000
O     4.360000000    -2.328000000     0.430000000
H     4.015000000    -1.527000000     0.037000000
H     4.574000000    -2.888000000    -0.316000000
O     6.175000000     3.576000000    -2.529000000
H     6.905000000     3.026000000    -2.244000000
H     5.473000000     2.959000000    -2.730000000
O     6.242000000     0.819000000    -0.688000000
H     5.976000000     1.229000000     0.135000000
H     5.421000000     0.659000000    -1.153000000
O     2.314000000    -5.283000000    -2.892000000
H     1.755000000    -5.237000000    -2.116000000
H     2.245000000    -4.415000000    -3.289000000
O    -3.007000000    -1.425000000     4.030000000
H    -2.257000000    -1.662000000     4.576000000
H    -3.719000000    -1.278000000     4.652000000
