158
-3032.12724
C     0.281000000    -1.389000000     0.251000000
H     0.351000000    -2.450000000     0.481000000
C    -0.624000000    -1.019000000    -0.738000000
H    -1.321000000    -1.717000000    -1.194000000
C    -0.831000000     0.395000000    -0.866000000
H    -1.445000000     0.638000000    -1.709000000
C     0.020000000     1.288000000    -0.184000000
H    -0.188000000     2.354000000    -0.232000000
C     0.951000000     0.814000000     0.804000000
H     1.465000000     1.566000000     1.398000000
C     1.077000000    -0.561000000     1.006000000
C     2.015000000    -1.053000000     1.992000000
O     2.122000000    -2.245000000     2.199000000
O     2.917000000    -0.404000000     2.527000000
O     1.964000000    -4.774000000     3.242000000
H     1.980000000    -3.937000000     2.777000000
H     1.533000000    -5.377000000     2.636000000
O     0.388000000     2.224000000    -4.386000000
H    -0.555000000     2.114000000    -4.262000000
H     0.517000000     3.173000000    -4.408000000
O    -4.152000000    -4.207000000    -1.605000000
H    -3.310000000    -4.663000000    -1.592000000
H    -4.443000000    -4.267000000    -2.515000000
O    -1.954000000    -5.457000000     0.306000000
H    -2.074000000    -6.406000000     0.283000000
H    -1.070000000    -5.319000000    -0.034000000
O    -4.562000000    -0.020000000    -1.197000000
H    -4.324000000    -0.629000000    -0.498000000
H    -4.561000000    -0.555000000    -1.991000000
O    -0.155000000     1.020000000    -7.707000000
H     0.800000000     1.074000000    -7.739000000
H    -0.338000000     0.465000000    -6.949000000
O    -3.600000000     2.465000000    -1.509000000
H    -3.846000000     1.655000000    -1.061000000
H    -4.034000000     2.408000000    -2.360000000
O    -4.510000000    -1.325000000    -3.430000000
H    -5.276000000    -1.541000000    -3.961000000
H    -3.788000000    -1.793000000    -3.849000000
O    -0.631000000    -0.821000000    -5.631000000
H    -1.085000000    -0.244000000    -5.017000000
H    -1.332000000    -1.231000000    -6.137000000
O     1.610000000    -3.240000000    -3.975000000
H     1.592000000    -2.835000000    -4.842000000
H     1.318000000    -2.548000000    -3.382000000
O     5.062000000     0.329000000     1.169000000
H     4.879000000     0.421000000     0.234000000
H     4.281000000    -0.093000000     1.526000000
O     0.601000000     4.973000000    -0.214000000
H     1.145000000     5.051000000     0.569000000
H     0.974000000     4.234000000    -0.693000000
O     2.214000000     1.613000000    -6.140000000
H     1.583000000     1.715000000    -5.427000000
H     2.738000000     0.853000000    -5.888000000
O    -3.007000000    -3.161000000    -5.160000000
H    -2.527000000    -2.542000000    -5.710000000
H    -2.326000000    -3.667000000    -4.717000000
O     1.862000000     1.444000000     4.083000000
H     1.295000000     0.838000000     4.560000000
H     2.482000000     0.880000000     3.622000000
O    -1.073000000     4.877000000    -4.573000000
H    -1.161000000     4.882000000    -3.620000000
H    -0.177000000     5.173000000    -4.733000000
O     7.790000000    -0.610000000     0.615000000
H     6.923000000    -0.336000000     0.915000000
H     7.811000000    -0.365000000    -0.310000000
O     1.600000000     4.051000000     2.722000000
H     1.416000000     3.211000000     3.143000000
H     2.554000000     4.079000000     2.651000000
O    -4.934000000     1.547000000    -4.463000000
H    -5.508000000     0.808000000    -4.662000000
H    -5.358000000     2.298000000    -4.879000000
O     4.073000000     3.345000000    -0.110000000
H     4.946000000     2.980000000    -0.256000000
H     4.102000000     3.682000000     0.785000000
O     4.305000000     3.837000000     2.549000000
H     4.981000000     3.195000000     2.766000000
H     4.711000000     4.684000000     2.733000000
O    -1.701000000     4.769000000     1.270000000
H    -1.268000000     5.529000000     1.659000000
H    -0.984000000     4.181000000     1.032000000
O     1.318000000    -0.639000000    -2.898000000
H     0.874000000     0.130000000    -3.256000000
H     1.206000000    -0.560000000    -1.951000000
O     0.979000000    -5.054000000    -0.860000000
H     1.216000000    -5.804000000    -0.314000000
H     1.757000000    -4.889000000    -1.392000000
O     0.806000000    -1.202000000     4.867000000
H     1.147000000    -1.527000000     5.700000000
H     1.400000000    -1.561000000     4.208000000
O    -3.268000000    -3.478000000     1.780000000
H    -3.055000000    -4.130000000     1.113000000
H    -2.925000000    -2.656000000     1.429000000
O     5.440000000    -2.263000000    -1.361000000
H     5.044000000    -2.544000000    -0.536000000
H     5.136000000    -1.363000000    -1.478000000
O    -4.022000000     5.693000000    -3.727000000
H    -3.151000000     5.303000000    -3.661000000
H    -3.967000000     6.493000000    -3.204000000
O     7.599000000    -3.045000000     3.447000000
H     6.780000000    -2.575000000     3.602000000
H     7.515000000    -3.385000000     2.556000000
O    -2.287000000     0.866000000    -3.924000000
H    -2.427000000     0.344000000    -3.134000000
H    -3.137000000     1.272000000    -4.096000000
O    -1.848000000     4.424000000    -2.011000000
H    -2.422000000     3.735000000    -1.677000000
H    -1.593000000     4.921000000    -1.234000000
O    -6.882000000     1.838000000    -2.124000000
H    -7.104000000     2.736000000    -2.370000000
H    -5.927000000     1.837000000    -2.059000000
O     2.836000000     3.056000000     6.141000000
H     2.914000000     2.264000000     6.673000000
H     2.557000000     2.741000000     5.281000000
O    -2.736000000    -0.864000000     1.082000000
H    -2.335000000    -0.914000000     1.949000000
H    -2.170000000    -0.268000000     0.590000000
O     4.366000000    -3.180000000     1.164000000
H     3.537000000    -2.856000000     1.514000000
H     4.378000000    -4.109000000     1.395000000
O    -1.670000000    -1.287000000     3.799000000
H    -1.685000000    -2.208000000     4.062000000
H    -0.781000000    -0.996000000     3.998000000
O    -1.683000000    -4.194000000     3.977000000
H    -2.321000000    -4.335000000     3.277000000
H    -1.336000000    -5.066000000     4.164000000
O     4.910000000    -5.854000000     1.961000000
H     5.647000000    -6.387000000     2.258000000
H     4.659000000    -6.239000000     1.121000000
O     4.920000000    -1.790000000     3.482000000
H     4.848000000    -2.273000000     2.659000000
H     4.109000000    -1.284000000     3.533000000
O     1.905000000     3.069000000    -1.626000000
H     2.741000000     3.258000000    -1.202000000
H     2.146000000     2.708000000    -2.480000000
O     3.948000000     0.560000000    -1.215000000
H     3.136000000     1.048000000    -1.081000000
H     4.592000000     1.228000000    -1.450000000
O     0.350000000     6.405000000     2.644000000
H     0.862000000     7.101000000     3.056000000
H     0.871000000     5.613000000     2.780000000
O    -1.453000000    -4.662000000    -2.849000000
H    -1.694000000    -5.374000000    -3.441000000
H    -0.573000000    -4.889000000    -2.548000000
O     4.987000000    -2.316000000     6.119000000
H     5.068000000    -2.381000000     5.167000000
H     4.231000000    -2.863000000     6.332000000
O    -4.397000000     3.941000000     0.822000000
H    -4.054000000     3.357000000     0.145000000
H    -3.619000000     4.358000000     1.194000000
O     2.515000000    -3.796000000     5.957000000
H     2.034000000    -3.900000000     5.136000000
H     2.351000000    -4.610000000     6.435000000
O    -0.744000000     7.320000000    -0.976000000
H    -0.603000000     6.524000000    -0.463000000
H    -1.689000000     7.344000000    -1.127000000
O     6.654000000     1.632000000     2.787000000
H     6.569000000     1.109000000     3.584000000
H     6.060000000     1.216000000     2.163000000
