158
-3029.68431
C     1.080000000    -1.025000000     0.166000000
H     1.823000000    -1.816000000     0.226000000
C    -0.207000000    -1.305000000    -0.298000000
H    -0.483000000    -2.255000000    -0.749000000
C    -1.079000000    -0.208000000    -0.499000000
H    -1.974000000    -0.375000000    -1.151000000
C    -0.804000000     1.080000000    -0.114000000
H    -1.543000000     1.814000000    -0.424000000
C     0.391000000     1.348000000     0.510000000
H     0.743000000     2.358000000     0.706000000
C     1.318000000     0.283000000     0.642000000
C     2.645000000     0.602000000     1.341000000
O     3.399000000    -0.306000000     1.564000000
O     2.962000000     1.685000000     1.702000000
O     5.055000000    -1.888000000     3.471000000
H     4.581000000    -1.282000000     2.901000000
H     4.384000000    -2.242000000     4.055000000
O    -1.382000000    -4.484000000     1.664000000
H    -1.786000000    -5.143000000     1.100000000
H    -1.942000000    -3.713000000     1.570000000
O    -0.661000000     5.673000000    -3.082000000
H    -1.276000000     4.958000000    -3.241000000
H    -0.243000000     5.450000000    -2.251000000
O    -5.197000000    -0.627000000     1.997000000
H    -5.193000000    -0.440000000     1.058000000
H    -5.627000000     0.133000000     2.390000000
O    -1.731000000    -4.452000000    -2.795000000
H    -2.366000000    -3.800000000    -2.498000000
H    -1.073000000    -3.946000000    -3.271000000
O    -3.059000000    -1.891000000    -4.939000000
H    -3.531000000    -2.635000000    -5.311000000
H    -2.359000000    -2.286000000    -4.418000000
O    -1.527000000    -6.895000000    -0.532000000
H    -2.344000000    -6.848000000    -0.035000000
H    -1.590000000    -6.179000000    -1.164000000
O     2.600000000    -2.888000000     2.512000000
H     2.513000000    -1.958000000     2.304000000
H     1.954000000    -3.320000000     1.953000000
O    -4.528000000     3.637000000    -1.682000000
H    -4.558000000     4.593000000    -1.685000000
H    -5.440000000     3.369000000    -1.801000000
O     6.957000000     0.515000000     2.294000000
H     6.060000000     0.576000000     2.622000000
H     6.860000000     0.398000000     1.349000000
O     1.270000000    -5.207000000    -2.402000000
H     1.689000000    -4.353000000    -2.509000000
H     1.123000000    -5.285000000    -1.460000000
O    -2.742000000    -2.046000000     1.239000000
H    -1.921000000    -1.768000000     0.833000000
H    -2.828000000    -1.486000000     2.012000000
O     1.593000000    -0.480000000    -4.110000000
H     1.210000000     0.388000000    -3.986000000
H     2.200000000    -0.372000000    -4.842000000
O     4.837000000     3.262000000     0.522000000
H     4.366000000     2.485000000     0.825000000
H     4.944000000     3.799000000     1.307000000
O     4.616000000    -1.954000000    -3.788000000
H     3.838000000    -2.252000000    -3.316000000
H     5.198000000    -1.622000000    -3.105000000
O    -5.406000000    -4.515000000    -3.306000000
H    -4.716000000    -4.052000000    -2.831000000
H    -5.306000000    -5.430000000    -3.043000000
O    -6.668000000     0.085000000    -0.848000000
H    -6.253000000     0.104000000    -1.710000000
H    -6.893000000     0.998000000    -0.669000000
O     4.519000000     5.921000000     1.947000000
H     3.722000000     6.198000000     1.496000000
H     4.636000000     6.566000000     2.644000000
O     0.817000000     5.281000000    -0.954000000
H     0.888000000     5.621000000    -0.062000000
H     1.524000000     4.639000000    -1.022000000
O    -2.550000000     0.897000000    -4.773000000
H    -2.577000000    -0.032000000    -4.544000000
H    -2.304000000     0.909000000    -5.698000000
O    -3.386000000    -2.708000000    -1.641000000
H    -2.916000000    -2.467000000    -0.843000000
H    -3.903000000    -1.932000000    -1.859000000
O     1.783000000     3.990000000     2.357000000
H     1.996000000     4.021000000     3.290000000
H     2.121000000     3.144000000     2.063000000
O    -4.498000000    -2.099000000     4.321000000
H    -4.584000000    -1.702000000     3.454000000
H    -5.137000000    -2.812000000     4.322000000
O     6.685000000     1.626000000    -0.802000000
H     7.016000000     2.102000000    -1.564000000
H     6.389000000     2.310000000    -0.202000000
O     2.147000000     3.091000000    -4.137000000
H     2.337000000     3.399000000    -3.250000000
H     1.490000000     3.704000000    -4.467000000
O     1.943000000     6.575000000     1.577000000
H     1.705000000     5.716000000     1.927000000
H     1.830000000     7.174000000     2.315000000
O     2.282000000    -2.623000000    -2.661000000
H     1.826000000    -2.425000000    -1.842000000
H     1.932000000    -1.990000000    -3.288000000
O     0.963000000    -2.453000000     4.859000000
H     1.613000000    -2.527000000     4.160000000
H     0.166000000    -2.829000000     4.487000000
O    -0.579000000     5.174000000     2.931000000
H     0.211000000     4.851000000     2.497000000
H    -1.060000000     5.632000000     2.242000000
O     2.780000000     3.378000000    -1.371000000
H     2.544000000     2.489000000    -1.105000000
H     3.621000000     3.540000000    -0.942000000
O     1.152000000    -4.315000000     0.797000000
H     1.378000000    -5.237000000     0.679000000
H     0.267000000    -4.330000000     1.162000000
O     1.726000000     4.351000000     5.110000000
H     2.480000000     3.767000000     5.188000000
H     1.011000000     3.878000000     5.535000000
O    -1.289000000    -0.526000000     3.159000000
H    -0.661000000     0.186000000     3.037000000
H    -1.909000000    -0.190000000     3.806000000
O     4.264000000     0.704000000    -2.321000000
H     3.845000000    -0.058000000    -2.721000000
H     4.956000000     0.337000000    -1.772000000
O     5.957000000    -0.353000000     5.421000000
H     5.476000000     0.311000000     4.928000000
H     6.156000000    -1.033000000     4.777000000
O    -2.265000000     3.416000000    -3.170000000
H    -2.292000000     2.494000000    -3.424000000
H    -3.084000000     3.558000000    -2.695000000
O    -6.212000000    -4.149000000     1.001000000
H    -5.577000000    -3.463000000     0.795000000
H    -5.999000000    -4.411000000     1.897000000
O    -3.925000000     3.832000000     1.268000000
H    -3.241000000     4.459000000     1.033000000
H    -4.379000000     3.652000000     0.444000000
O     5.121000000    -1.871000000    -0.871000000
H     4.754000000    -1.571000000    -0.039000000
H     5.143000000    -2.825000000    -0.793000000
O    -1.177000000     2.695000000     3.773000000
H    -0.972000000     3.603000000     3.552000000
H    -0.326000000     2.294000000     3.950000000
O    -7.810000000    -1.869000000     0.758000000
H    -7.486000000    -2.758000000     0.903000000
H    -7.022000000    -1.349000000     0.605000000
O     1.115000000     1.392000000     4.141000000
H     1.792000000     1.274000000     3.475000000
H     1.452000000     0.932000000     4.910000000
O     4.247000000    -4.637000000     1.211000000
H     3.904000000    -3.945000000     1.776000000
H     4.187000000    -5.431000000     1.742000000
O     4.577000000     1.068000000     3.798000000
H     3.938000000     1.147000000     3.089000000
H     4.447000000     1.856000000     4.326000000
O    -0.346000000    -2.554000000    -4.376000000
H    -0.136000000    -2.997000000    -5.199000000
H     0.062000000    -1.691000000    -4.459000000
O    -3.990000000     2.770000000     3.580000000
H    -3.965000000     3.219000000     2.735000000
H    -3.088000000     2.485000000     3.726000000
O     4.298000000     3.259000000     5.473000000
H     4.605000000     4.084000000     5.848000000
H     4.109000000     2.707000000     6.232000000
O    -4.289000000    -0.329000000    -2.631000000
H    -4.406000000    -0.777000000    -3.469000000
H    -4.507000000     0.585000000    -2.816000000
