158
-3002.25296
C     0.948000000    -1.164000000     0.103000000
H     1.455000000    -2.123000000     0.173000000
C    -0.117000000    -1.076000000    -0.777000000
H    -0.386000000    -1.974000000    -1.326000000
C    -0.928000000     0.043000000    -0.799000000
H    -1.826000000     0.196000000    -1.458000000
C    -0.578000000     1.150000000    -0.058000000
H    -1.182000000     2.052000000    -0.110000000
C     0.464000000     1.069000000     0.827000000
H     0.517000000     1.838000000     1.594000000
C     1.236000000    -0.083000000     1.032000000
C     2.438000000    -0.100000000     1.945000000
O     2.775000000    -1.184000000     2.322000000
O     2.843000000     0.893000000     2.474000000
O    -3.839000000     0.018000000    -4.339000000
H    -3.919000000    -0.019000000    -3.386000000
H    -4.385000000     0.761000000    -4.597000000
O    -2.871000000    -5.542000000    -0.208000000
H    -3.728000000    -5.969000000    -0.217000000
H    -2.281000000    -6.181000000    -0.608000000
O    -7.125000000    -0.252000000    -0.582000000
H    -7.549000000    -1.107000000    -0.656000000
H    -7.824000000     0.338000000    -0.298000000
O     6.575000000     1.171000000     3.247000000
H     7.068000000     1.326000000     4.053000000
H     7.037000000     1.681000000     2.582000000
O     3.122000000    -3.775000000     3.020000000
H     2.301000000    -4.237000000     2.850000000
H     2.904000000    -2.850000000     2.905000000
O     4.174000000    -2.553000000     0.411000000
H     3.836000000    -3.430000000     0.593000000
H     3.593000000    -1.967000000     0.894000000
O    -0.325000000     1.567000000    -6.432000000
H    -0.982000000     1.063000000    -6.911000000
H    -0.832000000     2.121000000    -5.838000000
O    -3.952000000     3.558000000    -3.908000000
H    -4.592000000     3.491000000    -4.616000000
H    -4.461000000     3.851000000    -3.152000000
O    -6.789000000     3.260000000     0.963000000
H    -7.382000000     3.905000000     0.578000000
H    -6.364000000     2.847000000     0.212000000
O    -1.495000000    -1.977000000    -6.590000000
H    -1.414000000    -1.347000000    -5.874000000
H    -0.928000000    -2.705000000    -6.335000000
O    -0.146000000    -0.709000000    -4.183000000
H    -0.648000000    -1.181000000    -3.519000000
H     0.317000000    -0.029000000    -3.695000000
O     3.414000000     3.063000000     1.114000000
H     2.889000000     3.821000000     1.367000000
H     3.274000000     2.429000000     1.817000000
O    -6.699000000    -0.234000000    -4.220000000
H    -7.176000000    -0.384000000    -5.036000000
H    -5.795000000    -0.475000000    -4.424000000
O    -1.647000000    -3.093000000    -3.072000000
H    -0.918000000    -3.452000000    -2.565000000
H    -1.768000000    -3.714000000    -3.790000000
O     2.245000000     5.135000000     5.064000000
H     2.233000000     5.165000000     6.021000000
H     2.342000000     4.206000000     4.855000000
O    -5.405000000     2.731000000    -1.234000000
H    -5.183000000     1.803000000    -1.166000000
H    -5.894000000     2.802000000    -2.054000000
O     6.579000000    -1.535000000     1.701000000
H     6.404000000    -0.957000000     2.444000000
H     5.734000000    -1.942000000     1.510000000
O    -3.260000000    -2.946000000    -0.550000000
H    -2.756000000    -2.990000000    -1.363000000
H    -3.373000000    -3.860000000    -0.289000000
O     1.993000000     5.976000000     1.339000000
H     2.689000000     6.541000000     1.674000000
H     1.326000000     5.985000000     2.026000000
O    -5.281000000    -3.098000000    -3.369000000
H    -4.752000000    -2.714000000    -2.670000000
H    -4.644000000    -3.379000000    -4.026000000
O    -4.221000000    -1.423000000    -7.362000000
H    -5.040000000    -1.251000000    -6.897000000
H    -3.629000000    -1.759000000    -6.689000000
O     2.289000000     5.106000000    -2.337000000
H     3.218000000     4.904000000    -2.443000000
H     2.131000000     5.022000000    -1.397000000
O     0.185000000     6.024000000     3.470000000
H     0.927000000     5.847000000     4.047000000
H    -0.567000000     6.087000000     4.059000000
O     1.800000000     0.808000000    -2.423000000
H     1.256000000     0.534000000    -1.685000000
H     2.629000000     1.074000000    -2.024000000
O    -2.036000000    -4.921000000     2.467000000
H    -2.210000000    -5.760000000     2.893000000
H    -2.475000000    -4.988000000     1.619000000
O     1.997000000     2.490000000     4.361000000
H     1.704000000     2.031000000     5.148000000
H     2.276000000     1.793000000     3.767000000
O    -2.123000000    -1.557000000     1.753000000
H    -1.311000000    -1.269000000     1.336000000
H    -2.484000000    -2.207000000     1.151000000
O     4.572000000     1.320000000    -1.008000000
H     5.234000000     1.916000000    -1.359000000
H     4.238000000     1.766000000    -0.230000000
O    -1.297000000     3.381000000    -4.701000000
H    -2.179000000     3.644000000    -4.441000000
H    -0.717000000     3.904000000    -4.148000000
O    -1.282000000     4.988000000     1.417000000
H    -0.689000000     5.435000000     2.021000000
H    -1.600000000     4.231000000     1.910000000
O    -4.595000000    -0.582000000    -1.914000000
H    -5.529000000    -0.563000000    -1.704000000
H    -4.177000000    -0.901000000    -1.114000000
O     4.662000000    -5.496000000     4.517000000
H     4.294000000    -4.884000000     3.880000000
H     5.014000000    -6.211000000     3.987000000
O     2.206000000     0.796000000     7.043000000
H     2.962000000     0.240000000     6.855000000
H     1.610000000     0.232000000     7.536000000
O    -3.387000000     1.289000000     2.448000000
H    -3.557000000     0.386000000     2.180000000
H    -2.473000000     1.288000000     2.730000000
O     0.354000000    -4.581000000    -2.072000000
H     1.260000000    -4.863000000    -1.944000000
H    -0.172000000    -5.296000000    -1.715000000
O    -0.939000000     3.023000000     3.460000000
H    -0.081000000     3.025000000     3.885000000
H    -1.554000000     3.236000000     4.162000000
O    -0.515000000     0.264000000     5.505000000
H    -0.029000000     0.024000000     6.294000000
H    -0.265000000    -0.397000000     4.860000000
O     0.653000000    -4.391000000     2.918000000
H     0.373000000    -4.349000000     3.833000000
H    -0.126000000    -4.680000000     2.443000000
O     1.127000000    -1.539000000     4.348000000
H     1.653000000    -1.435000000     3.555000000
H     1.244000000    -2.456000000     4.594000000
O     4.459000000    -0.390000000     4.236000000
H     3.750000000    -0.644000000     3.645000000
H     4.647000000     0.520000000     4.007000000
O    -0.424000000     5.236000000    -2.921000000
H     0.396000000     4.766000000    -2.764000000
H    -0.738000000     5.468000000    -2.047000000
O     4.468000000    -1.155000000    -1.859000000
H     4.300000000    -0.291000000    -1.482000000
H     4.580000000    -1.729000000    -1.102000000
O     6.768000000    -1.316000000     5.392000000
H     6.417000000    -1.920000000     6.046000000
H     6.033000000    -1.146000000     4.803000000
O     0.568000000    -3.644000000    -5.526000000
H     0.662000000    -2.911000000    -4.918000000
H     1.031000000    -4.367000000    -5.104000000
O     4.220000000    -1.226000000     6.871000000
H     4.113000000    -0.813000000     6.014000000
H     4.287000000    -2.161000000     6.679000000
O    -4.020000000     5.162000000    -0.020000000
H    -3.300000000     5.026000000     0.595000000
H    -4.074000000     4.341000000    -0.510000000
O    -1.118000000     6.384000000    -0.768000000
H    -1.140000000     5.852000000     0.028000000
H    -1.810000000     7.033000000    -0.641000000
O     5.908000000     3.814000000     1.267000000
H     5.138000000     3.250000000     1.350000000
H     5.653000000     4.632000000     1.694000000
