158
-3049.49851
C    -0.930000000    -0.863000000     0.871000000
H    -1.432000000    -1.591000000     1.503000000
C    -0.467000000    -1.184000000    -0.457000000
H    -0.784000000    -2.124000000    -0.903000000
C     0.444000000    -0.297000000    -1.121000000
H     0.781000000    -0.490000000    -2.159000000
C     0.669000000     0.940000000    -0.551000000
H     1.246000000     1.610000000    -1.182000000
C     0.209000000     1.249000000     0.735000000
H     0.519000000     2.217000000     1.120000000
C    -0.603000000     0.340000000     1.470000000
C    -1.078000000     0.690000000     2.783000000
O    -0.888000000     1.809000000     3.151000000
O    -1.468000000    -0.161000000     3.546000000
O     0.918000000    -0.563000000     4.611000000
H     1.310000000    -1.351000000     4.234000000
H     0.075000000    -0.478000000     4.166000000
O    -0.249000000     6.511000000     1.285000000
H    -0.503000000     7.159000000     1.942000000
H    -0.392000000     5.667000000     1.713000000
O     0.810000000     1.357000000    -6.499000000
H     1.554000000     0.794000000    -6.714000000
H     0.093000000     1.024000000    -7.039000000
O    -2.055000000     3.504000000    -1.053000000
H    -2.172000000     2.557000000    -1.126000000
H    -1.157000000     3.657000000    -1.350000000
O    -0.429000000     2.556000000    -4.472000000
H     0.181000000     3.192000000    -4.098000000
H     0.101000000     2.047000000    -5.085000000
O    -4.000000000    -0.185000000     1.845000000
H    -3.944000000    -1.108000000     1.597000000
H    -3.381000000    -0.095000000     2.570000000
O     3.426000000    -4.326000000    -0.538000000
H     4.067000000    -3.975000000    -1.157000000
H     3.131000000    -3.563000000    -0.041000000
O     6.638000000     0.250000000    -3.567000000
H     7.439000000     0.678000000    -3.871000000
H     5.999000000     0.421000000    -4.259000000
O     4.898000000     2.131000000     0.932000000
H     4.445000000     2.719000000     1.536000000
H     5.385000000     2.715000000     0.350000000
O     1.346000000    -3.034000000     3.366000000
H     1.214000000    -3.982000000     3.343000000
H     1.056000000    -2.732000000     2.505000000
O    -1.759000000     1.453000000     6.317000000
H    -1.855000000     0.742000000     6.950000000
H    -1.832000000     1.025000000     5.464000000
O    -3.151000000     0.744000000    -1.328000000
H    -2.987000000     0.269000000    -0.514000000
H    -2.738000000     0.208000000    -2.005000000
O     3.186000000     3.762000000     5.151000000
H     3.001000000     4.235000000     4.339000000
H     2.563000000     3.035000000     5.150000000
O     0.921000000    -3.052000000    -3.827000000
H     1.222000000    -3.961000000    -3.832000000
H    -0.029000000    -3.115000000    -3.923000000
O     4.503000000    -4.101000000    -3.006000000
H     5.442000000    -3.924000000    -3.068000000
H     4.379000000    -4.910000000    -3.503000000
O     0.417000000     5.713000000    -1.497000000
H     1.309000000     5.525000000    -1.204000000
H     0.036000000     6.231000000    -0.788000000
O    -1.856000000    -4.847000000     4.809000000
H    -2.131000000    -3.936000000     4.708000000
H    -1.890000000    -5.207000000     3.923000000
O    -1.801000000     0.053000000    -3.642000000
H    -2.610000000     0.388000000    -4.031000000
H    -1.225000000     0.816000000    -3.593000000
O    -1.939000000     4.151000000     5.370000000
H    -2.707000000     4.329000000     4.828000000
H    -2.039000000     3.237000000     5.635000000
O     4.831000000    -0.116000000    -1.594000000
H     5.499000000     0.104000000    -2.243000000
H     4.163000000    -0.591000000    -2.090000000
O     1.788000000    -5.800000000    -3.212000000
H     2.363000000    -6.558000000    -3.315000000
H     2.108000000    -5.363000000    -2.423000000
O    -2.552000000    -2.339000000     4.682000000
H    -2.095000000    -1.535000000     4.434000000
H    -3.415000000    -2.043000000     4.974000000
O     3.250000000    -1.337000000    -3.539000000
H     3.620000000    -2.210000000    -3.670000000
H     2.304000000    -1.466000000    -3.601000000
O     1.057000000     2.194000000     5.447000000
H     1.068000000     1.411000000     4.896000000
H     0.145000000     2.484000000     5.433000000
O     1.876000000    -1.433000000    -6.783000000
H     1.201000000    -1.977000000    -7.189000000
H     2.470000000    -2.058000000    -6.369000000
O     3.935000000     4.322000000     2.242000000
H     3.389000000     4.971000000     2.686000000
H     4.774000000     4.764000000     2.110000000
O     1.930000000     3.960000000    -3.509000000
H     2.726000000     3.500000000    -3.242000000
H     1.601000000     4.356000000    -2.702000000
O     4.617000000    -0.647000000     0.872000000
H     4.872000000    -0.553000000    -0.046000000
H     4.656000000     0.242000000     1.224000000
O    -4.330000000    -4.818000000    -2.077000000
H    -3.470000000    -4.968000000    -2.470000000
H    -4.671000000    -5.696000000    -1.904000000
O    -0.147000000    -2.595000000     6.540000000
H    -0.941000000    -2.859000000     6.074000000
H     0.379000000    -2.145000000     5.879000000
O     4.170000000     2.746000000    -2.691000000
H     3.875000000     2.468000000    -1.824000000
H     4.160000000     1.946000000    -3.215000000
O    -4.892000000     1.276000000     5.600000000
H    -5.783000000     1.532000000     5.363000000
H    -4.341000000     1.667000000     4.922000000
O    -6.545000000     0.695000000     2.614000000
H    -7.107000000     1.070000000     1.937000000
H    -5.674000000     0.669000000     2.217000000
O     4.525000000     0.716000000    -4.943000000
H     4.033000000    -0.068000000    -4.703000000
H     4.320000000     0.855000000    -5.868000000
O    -5.217000000    -1.457000000     5.849000000
H    -5.170000000    -0.511000000     5.709000000
H    -5.065000000    -1.568000000     6.788000000
O    -1.693000000    -2.794000000    -3.319000000
H    -1.719000000    -1.838000000    -3.289000000
H    -2.368000000    -3.032000000    -3.955000000
O    -0.637000000     4.399000000     2.818000000
H    -0.781000000     3.455000000     2.879000000
H    -0.110000000     4.611000000     3.588000000
O    -2.526000000    -5.744000000     2.501000000
H    -3.473000000    -5.629000000     2.580000000
H    -2.417000000    -6.321000000     1.745000000
O    -3.983000000    -2.882000000     1.139000000
H    -4.352000000    -3.544000000     1.723000000
H    -3.982000000    -3.297000000     0.276000000
O    -3.524000000     2.555000000     3.412000000
H    -2.630000000     2.220000000     3.484000000
H    -3.554000000     2.977000000     2.554000000
O     2.253000000    -2.262000000     0.741000000
H     1.749000000    -1.634000000     0.224000000
H     3.016000000    -1.769000000     1.041000000
O     0.775000000    -5.323000000    -0.291000000
H     0.661000000    -5.170000000     0.647000000
H     1.553000000    -4.816000000    -0.524000000
O     2.967000000     5.059000000    -0.531000000
H     3.678000000     5.190000000    -1.158000000
H     3.402000000     4.754000000     0.265000000
O     0.429000000    -5.176000000     2.358000000
H     0.571000000    -6.122000000     2.334000000
H    -0.523000000    -5.076000000     2.349000000
O    -3.328000000     4.577000000     1.320000000
H    -3.161000000     4.106000000     0.504000000
H    -2.506000000     5.031000000     1.507000000
O    -2.706000000     3.679000000    -5.641000000
H    -1.855000000     3.337000000    -5.367000000
H    -3.189000000     3.803000000    -4.823000000
O    -1.429000000    -5.300000000    -2.710000000
H    -0.780000000    -5.641000000    -2.095000000
H    -1.249000000    -4.361000000    -2.752000000
O    -0.031000000     5.854000000     5.269000000
H    -0.688000000     5.204000000     5.521000000
H    -0.541000000     6.600000000     4.952000000
