158
-3061.82885
C     1.316000000    -0.608000000     0.088000000
H     2.233000000    -1.192000000     0.099000000
C     0.256000000    -1.093000000    -0.654000000
H     0.426000000    -1.967000000    -1.277000000
C    -0.986000000    -0.448000000    -0.617000000
H    -1.831000000    -0.791000000    -1.263000000
C    -1.101000000     0.740000000     0.135000000
H    -2.064000000     1.241000000     0.194000000
C    -0.051000000     1.220000000     0.857000000
H    -0.111000000     2.160000000     1.399000000
C     1.195000000     0.585000000     0.835000000
C     2.407000000     1.120000000     1.553000000
O     3.515000000     0.477000000     1.568000000
O     2.298000000     2.066000000     2.304000000
O    -0.323000000    -1.998000000     2.864000000
H    -0.375000000    -1.309000000     3.527000000
H    -0.472000000    -1.544000000     2.035000000
O    -5.647000000    -2.035000000    -4.016000000
H    -5.159000000    -1.716000000    -4.775000000
H    -5.762000000    -2.970000000    -4.181000000
O    -2.628000000     4.563000000    -2.468000000
H    -3.000000000     5.262000000    -3.005000000
H    -3.140000000     3.787000000    -2.697000000
O    -1.900000000    -3.824000000    -4.244000000
H    -2.816000000    -4.102000000    -4.243000000
H    -1.569000000    -4.085000000    -3.385000000
O     4.778000000    -3.668000000    -0.675000000
H     4.343000000    -2.990000000    -0.158000000
H     4.302000000    -4.471000000    -0.466000000
O    -2.493000000    -3.891000000     0.552000000
H    -2.646000000    -4.349000000     1.378000000
H    -2.962000000    -3.062000000     0.647000000
O     4.057000000    -4.812000000     2.879000000
H     4.886000000    -4.491000000     3.233000000
H     3.611000000    -4.026000000     2.563000000
O    -4.658000000    -1.451000000    -6.536000000
H    -3.899000000    -0.885000000    -6.392000000
H    -5.248000000    -0.928000000    -7.078000000
O    -2.666000000     6.456000000     2.566000000
H    -3.585000000     6.277000000     2.368000000
H    -2.195000000     6.194000000     1.775000000
O    -1.393000000    -0.205000000     4.653000000
H    -2.004000000     0.473000000     4.366000000
H    -0.956000000     0.173000000     5.416000000
O     5.844000000     1.462000000     2.171000000
H     4.916000000     1.438000000     1.940000000
H     6.102000000     2.373000000     2.029000000
O     2.079000000    -6.502000000    -2.975000000
H     1.679000000    -7.171000000    -3.530000000
H     1.523000000    -5.731000000    -3.091000000
O     1.905000000    -2.940000000    -4.017000000
H     1.265000000    -3.418000000    -3.489000000
H     1.538000000    -2.061000000    -4.101000000
O    -5.633000000     4.825000000    -1.397000000
H    -5.329000000     4.049000000    -0.927000000
H    -6.523000000     4.606000000    -1.673000000
O     0.003000000     1.742000000    -2.403000000
H    -0.353000000     1.550000000    -1.535000000
H     0.929000000     1.508000000    -2.339000000
O     0.718000000    -0.584000000    -4.161000000
H     1.421000000    -0.204000000    -3.633000000
H     0.156000000     0.159000000    -4.380000000
O    -4.020000000     2.217000000    -1.208000000
H    -3.482000000     1.713000000    -1.818000000
H    -4.587000000     1.567000000    -0.794000000
O     8.396000000    -0.105000000     2.882000000
H     7.542000000     0.274000000     2.675000000
H     8.219000000    -0.724000000     3.590000000
O     4.886000000    -4.281000000    -3.225000000
H     4.939000000    -3.775000000    -2.414000000
H     3.951000000    -4.451000000    -3.340000000
O     6.993000000    -1.433000000     0.218000000
H     7.837000000    -1.074000000    -0.055000000
H     7.123000000    -2.381000000     0.213000000
O    -3.272000000     3.562000000     1.155000000
H    -3.593000000     2.915000000     0.527000000
H    -3.836000000     4.324000000     1.024000000
O     3.378000000     4.215000000     1.365000000
H     2.972000000     3.461000000     1.792000000
H     4.319000000     4.060000000     1.447000000
O    -5.091000000    -0.128000000    -2.188000000
H    -5.565000000     0.645000000    -2.496000000
H    -4.983000000    -0.670000000    -2.970000000
O     0.116000000     3.287000000     3.727000000
H     0.769000000     2.659000000     3.417000000
H     0.415000000     4.130000000     3.388000000
O    -2.031000000    -5.592000000    -1.930000000
H    -2.303000000    -6.510000000    -1.909000000
H    -2.329000000    -5.235000000    -1.093000000
O     2.152000000     5.703000000     5.106000000
H     1.525000000     5.723000000     4.383000000
H     2.594000000     4.859000000     5.017000000
O     3.985000000    -1.325000000    -4.730000000
H     4.455000000    -2.017000000    -5.195000000
H     3.299000000    -1.785000000    -4.246000000
O    -2.404000000     2.210000000     3.533000000
H    -2.667000000     2.619000000     2.709000000
H    -1.455000000     2.325000000     3.566000000
O    -5.788000000     0.452000000     2.106000000
H    -5.240000000    -0.333000000     2.112000000
H    -5.728000000     0.792000000     2.999000000
O    -2.637000000     1.356000000    -3.286000000
H    -1.804000000     1.700000000    -2.962000000
H    -2.416000000     0.941000000    -4.120000000
O    -6.324000000    -2.053000000    -0.789000000
H    -5.843000000    -1.506000000    -1.410000000
H    -6.537000000    -2.845000000    -1.283000000
O     1.068000000     5.712000000     2.498000000
H     0.622000000     6.395000000     1.997000000
H     1.656000000     5.297000000     1.866000000
O    -1.099000000    -2.011000000    -6.068000000
H    -1.411000000    -2.533000000    -5.329000000
H    -0.155000000    -1.935000000    -5.928000000
O    -4.549000000    -1.914000000     1.383000000
H    -4.901000000    -2.489000000     2.063000000
H    -5.066000000    -2.120000000     0.604000000
O    -0.648000000     5.562000000    -0.657000000
H     0.170000000     5.235000000    -1.033000000
H    -1.334000000     5.131000000    -1.167000000
O     3.235000000    -5.845000000    -0.456000000
H     2.835000000    -5.924000000    -1.322000000
H     2.538000000    -6.092000000     0.153000000
O     3.937000000    -2.204000000     1.775000000
H     3.831000000    -1.265000000     1.623000000
H     4.840000000    -2.297000000     2.079000000
O     2.994000000     3.171000000     4.557000000
H     3.868000000     2.958000000     4.883000000
H     2.881000000     2.610000000     3.789000000
O     3.725000000     7.024000000     1.646000000
H     3.698000000     6.086000000     1.456000000
H     2.806000000     7.282000000     1.713000000
O     4.626000000     0.326000000     4.264000000
H     5.134000000     0.880000000     3.671000000
H     4.010000000    -0.134000000     3.694000000
O     4.696000000    -0.010000000    -0.718000000
H     5.476000000    -0.479000000    -0.423000000
H     4.280000000     0.296000000     0.088000000
O     0.522000000    -4.425000000    -2.037000000
H     0.871000000    -4.205000000    -1.173000000
H    -0.221000000    -5.001000000    -1.855000000
O     2.658000000     1.004000000    -2.937000000
H     2.854000000     1.917000000    -3.148000000
H     3.219000000     0.805000000    -2.188000000
O    -1.506000000     0.756000000    -5.593000000
H    -1.376000000    -0.162000000    -5.832000000
H    -0.800000000     1.223000000    -6.039000000
O     0.322000000    -4.402000000     0.750000000
H     0.591000000    -3.779000000     1.425000000
H    -0.620000000    -4.262000000     0.656000000
O     6.087000000     4.224000000     1.891000000
H     6.776000000     4.580000000     1.331000000
H     6.195000000     4.683000000     2.724000000
O     0.601000000     4.666000000    -2.906000000
H    -0.100000000     4.033000000    -2.752000000
H     1.267000000     4.173000000    -3.385000000
O    -7.895000000    -1.286000000     1.220000000
H    -7.394000000    -1.695000000     0.514000000
H    -7.262000000    -0.730000000     1.673000000
