158
-3042.15777
C     1.401000000     0.336000000    -0.269000000
H     2.445000000     0.550000000    -0.483000000
C     0.586000000    -0.475000000    -1.071000000
H     0.996000000    -0.910000000    -1.979000000
C    -0.744000000    -0.634000000    -0.763000000
H    -1.442000000    -1.205000000    -1.366000000
C    -1.225000000    -0.225000000     0.472000000
H    -2.199000000    -0.580000000     0.801000000
C    -0.477000000     0.724000000     1.148000000
H    -0.790000000     1.209000000     2.069000000
C     0.867000000     0.980000000     0.862000000
C     1.804000000     1.916000000     1.686000000
O     2.890000000     1.586000000     1.950000000
O     1.277000000     2.850000000     2.244000000
O     5.494000000    -2.236000000     4.835000000
H     4.662000000    -2.508000000     5.221000000
H     5.249000000    -1.599000000     4.163000000
O    -0.818000000    -3.533000000     3.379000000
H    -1.535000000    -2.930000000     3.575000000
H    -0.110000000    -3.262000000     3.963000000
O     3.279000000     5.078000000    -1.156000000
H     3.259000000     5.442000000    -0.271000000
H     4.162000000     4.718000000    -1.247000000
O    -2.915000000     2.838000000     5.755000000
H    -2.874000000     2.925000000     6.707000000
H    -2.010000000     2.950000000     5.464000000
O    -5.985000000    -3.691000000    -0.468000000
H    -6.147000000    -2.976000000    -1.084000000
H    -6.852000000    -4.055000000    -0.290000000
O     0.089000000    -2.747000000    -6.611000000
H     0.491000000    -3.195000000    -7.356000000
H    -0.468000000    -3.410000000    -6.205000000
O    -1.235000000    -5.469000000    -0.960000000
H    -0.667000000    -5.262000000    -0.217000000
H    -1.917000000    -4.798000000    -0.934000000
O     1.008000000    -1.545000000     4.630000000
H     0.468000000    -0.847000000     4.259000000
H     0.778000000    -1.559000000     5.559000000
O    -2.463000000     6.517000000     1.534000000
H    -3.160000000     5.862000000     1.531000000
H    -1.668000000     6.022000000     1.333000000
O    -3.355000000    -0.112000000     4.943000000
H    -3.388000000     0.116000000     5.872000000
H    -4.096000000     0.354000000     4.555000000
O     5.240000000     2.698000000     2.251000000
H     4.305000000     2.548000000     2.111000000
H     5.651000000     2.439000000     1.427000000
O     1.991000000    -1.138000000    -5.318000000
H     1.522000000    -1.779000000    -5.853000000
H     1.301000000    -0.649000000    -4.870000000
O    -3.251000000     2.594000000    -0.594000000
H    -2.311000000     2.428000000    -0.671000000
H    -3.504000000     2.939000000    -1.451000000
O    -0.677000000     2.503000000    -1.536000000
H    -0.262000000     1.641000000    -1.563000000
H    -0.136000000     3.046000000    -2.110000000
O     0.292000000     1.145000000    -4.508000000
H     0.922000000     1.693000000    -4.040000000
H    -0.459000000     1.718000000    -4.658000000
O    -4.614000000     0.322000000     1.341000000
H    -4.235000000     1.195000000     1.447000000
H    -5.442000000     0.474000000     0.885000000
O     7.003000000     1.936000000     4.152000000
H     6.446000000     2.194000000     3.418000000
H     7.371000000     1.092000000     3.888000000
O     3.709000000    -1.986000000    -3.017000000
H     3.292000000    -2.652000000    -2.469000000
H     3.084000000    -1.835000000    -3.726000000
O    -4.302000000     4.602000000     0.990000000
H    -5.120000000     4.123000000     1.125000000
H    -3.737000000     3.984000000     0.526000000
O     5.431000000    -3.935000000    -0.313000000
H     5.290000000    -4.040000000    -1.254000000
H     4.806000000    -3.258000000    -0.051000000
O     6.061000000     1.470000000    -0.294000000
H     5.485000000     1.416000000    -1.057000000
H     6.306000000     0.562000000    -0.114000000
O     2.717000000     5.480000000     1.668000000
H     2.381000000     4.608000000     1.874000000
H     3.425000000     5.620000000     2.297000000
O    -2.347000000    -2.225000000    -3.582000000
H    -2.506000000    -1.330000000    -3.279000000
H    -3.086000000    -2.416000000    -4.160000000
O    -0.396000000     3.368000000     4.611000000
H     0.100000000     3.196000000     3.810000000
H    -0.459000000     4.322000000     4.653000000
O    -0.017000000    -3.271000000    -3.087000000
H    -0.790000000    -2.834000000    -3.444000000
H    -0.083000000    -4.172000000    -3.403000000
O     2.176000000     5.175000000     5.686000000
H     1.623000000     5.344000000     4.924000000
H     2.560000000     4.314000000     5.518000000
O     3.606000000     1.177000000    -4.939000000
H     3.129000000     0.529000000    -5.458000000
H     3.455000000     2.006000000    -5.394000000
O    -3.423000000    -2.891000000     3.286000000
H    -3.566000000    -1.954000000     3.419000000
H    -3.966000000    -3.313000000     3.952000000
O    -2.860000000    -7.532000000    -1.314000000
H    -2.376000000    -6.775000000    -0.984000000
H    -3.722000000    -7.184000000    -1.544000000
O    -6.235000000    -1.476000000     2.749000000
H    -5.354000000    -1.362000000     2.393000000
H    -6.232000000    -0.972000000     3.563000000
O    -0.540000000     0.656000000     4.640000000
H    -0.521000000     1.600000000     4.482000000
H    -1.461000000     0.461000000     4.814000000
O    -3.675000000     0.232000000    -2.186000000
H    -3.837000000     0.320000000    -1.247000000
H    -3.819000000     1.111000000    -2.537000000
O    -5.036000000    -2.306000000    -2.753000000
H    -4.483000000    -1.561000000    -2.515000000
H    -5.627000000    -1.961000000    -3.423000000
O     0.519000000     6.163000000     3.832000000
H    -0.109000000     5.709000000     3.270000000
H     0.140000000     7.032000000     3.962000000
O    -1.608000000    -0.578000000    -6.607000000
H    -1.358000000    -1.500000000    -6.545000000
H    -1.023000000    -0.130000000    -5.996000000
O    -3.330000000    -3.745000000    -0.407000000
H    -3.216000000    -3.009000000    -1.008000000
H    -4.279000000    -3.833000000    -0.314000000
O    -0.733000000     4.253000000     0.910000000
H    -0.679000000     3.912000000     0.017000000
H    -0.096000000     3.735000000     1.403000000
O    -0.390000000    -6.310000000    -3.376000000
H    -0.700000000    -5.933000000    -2.553000000
H    -1.188000000    -6.521000000    -3.860000000
O     2.593000000     1.014000000     6.749000000
H     1.910000000     1.599000000     7.075000000
H     2.716000000     1.274000000     5.836000000
O     3.791000000    -1.456000000     0.840000000
H     3.386000000    -0.605000000     1.007000000
H     4.676000000    -1.374000000     1.197000000
O     2.985000000     2.836000000     4.708000000
H     3.900000000     2.742000000     4.445000000
H     2.485000000     2.513000000     3.958000000
O     3.307000000    -0.209000000     3.774000000
H     2.528000000    -0.695000000     4.042000000
H     2.975000000     0.472000000     3.188000000
O     4.443000000     0.658000000    -2.391000000
H     4.063000000     1.024000000    -3.189000000
H     3.983000000    -0.173000000    -2.266000000
O     2.170000000    -3.458000000    -1.382000000
H     1.866000000    -3.440000000    -0.475000000
H     1.403000000    -3.204000000    -1.896000000
O     2.015000000     2.981000000    -2.590000000
H     2.133000000     3.854000000    -2.215000000
H     2.896000000     2.608000000    -2.610000000
O    -2.412000000    -5.017000000     1.802000000
H    -2.753000000    -4.461000000     1.101000000
H    -2.250000000    -4.415000000     2.528000000
O     0.474000000    -2.857000000     1.035000000
H     0.377000000    -1.968000000     0.694000000
H    -0.094000000    -2.882000000     1.805000000
O     5.347000000     5.295000000     3.116000000
H     5.623000000     4.408000000     2.884000000
H     5.263000000     5.277000000     4.069000000
