158
-3038.15098
C     1.268000000    -0.634000000    -0.662000000
H     2.169000000    -1.001000000    -1.147000000
C    -0.082000000    -0.926000000    -1.080000000
H    -0.243000000    -1.540000000    -1.962000000
C    -1.119000000    -0.274000000    -0.436000000
H    -2.134000000    -0.370000000    -0.835000000
C    -0.864000000     0.467000000     0.671000000
H    -1.707000000     0.849000000     1.242000000
C     0.422000000     0.771000000     1.103000000
H     0.429000000     1.393000000     1.994000000
C     1.516000000     0.204000000     0.471000000
C     2.842000000     0.632000000     1.096000000
O     3.772000000     0.388000000     0.419000000
O     2.951000000     1.567000000     1.857000000
O     1.749000000     1.951000000     4.160000000
H     1.619000000     1.060000000     4.484000000
H     2.156000000     1.838000000     3.301000000
O    -0.327000000    -2.765000000     1.601000000
H    -0.520000000    -1.849000000     1.400000000
H    -0.626000000    -3.247000000     0.831000000
O     6.747000000    -0.451000000     1.988000000
H     6.183000000    -1.190000000     1.762000000
H     7.634000000    -0.811000000     1.969000000
O     0.913000000    -1.204000000    -7.202000000
H     0.333000000    -1.055000000    -6.456000000
H     0.519000000    -0.702000000    -7.916000000
O    -1.671000000    -3.600000000    -0.712000000
H    -1.048000000    -4.043000000    -1.288000000
H    -2.260000000    -3.137000000    -1.307000000
O    -4.722000000    -0.833000000    -5.046000000
H    -5.242000000    -0.237000000    -5.585000000
H    -4.373000000    -0.280000000    -4.346000000
O     0.653000000     1.735000000    -5.926000000
H     1.164000000     2.183000000    -5.252000000
H     0.486000000     0.866000000    -5.562000000
O     2.443000000    -3.000000000    -2.833000000
H     1.527000000    -3.139000000    -2.593000000
H     2.625000000    -3.674000000    -3.488000000
O    -3.019000000    -2.338000000    -3.396000000
H    -2.747000000    -3.059000000    -3.963000000
H    -3.689000000    -1.877000000    -3.900000000
O    -0.830000000     4.172000000     4.099000000
H    -0.467000000     4.269000000     4.979000000
H    -0.089000000     3.884000000     3.565000000
O     6.370000000    -2.075000000    -1.167000000
H     6.294000000    -1.308000000    -1.735000000
H     5.480000000    -2.422000000    -1.111000000
O    -6.315000000    -2.203000000    -3.069000000
H    -5.791000000    -2.210000000    -3.870000000
H    -7.155000000    -1.828000000    -3.336000000
O    -0.724000000    -0.799000000    -5.041000000
H    -1.112000000    -1.257000000    -4.295000000
H    -1.465000000    -0.609000000    -5.616000000
O     3.580000000     5.314000000     1.249000000
H     4.346000000     4.795000000     1.492000000
H     3.565000000     5.285000000     0.292000000
O     3.688000000     3.497000000     4.984000000
H     4.313000000     3.326000000     4.280000000
H     2.980000000     2.871000000     4.832000000
O    -3.623000000     4.294000000    -1.279000000
H    -4.070000000     3.471000000    -1.085000000
H    -2.779000000     4.219000000    -0.833000000
O     0.628000000    -3.869000000    -5.870000000
H     1.505000000    -4.209000000    -5.694000000
H     0.771000000    -2.956000000    -6.118000000
O     5.066000000     2.409000000    -4.174000000
H     4.797000000     2.514000000    -3.261000000
H     4.336000000     2.763000000    -4.681000000
O    -1.593000000     2.406000000    -4.648000000
H    -1.002000000     1.995000000    -5.280000000
H    -1.039000000     3.019000000    -4.165000000
O     3.589000000    -2.026000000     3.957000000
H     3.551000000    -2.309000000     3.044000000
H     3.901000000    -1.122000000     3.915000000
O     3.393000000    -4.799000000    -1.024000000
H     2.912000000    -4.628000000    -0.215000000
H     3.138000000    -4.086000000    -1.610000000
O     3.248000000    -0.584000000    -4.070000000
H     2.510000000    -0.039000000    -3.798000000
H     3.075000000    -1.438000000    -3.673000000
O     1.130000000     1.262000000    -2.856000000
H     0.739000000     2.126000000    -2.985000000
H     0.617000000     0.869000000    -2.150000000
O     6.067000000     1.645000000     0.329000000
H     5.222000000     1.203000000     0.419000000
H     6.711000000     0.983000000     0.579000000
O     8.132000000     0.805000000    -1.305000000
H     8.710000000     0.097000000    -1.023000000
H     7.502000000     0.382000000    -1.888000000
O    -5.528000000    -2.989000000    -0.506000000
H    -5.422000000    -2.354000000    -1.215000000
H    -6.344000000    -3.444000000    -0.713000000
O     1.260000000     3.964000000     1.726000000
H     2.074000000     4.413000000     1.500000000
H     1.521000000     3.056000000     1.876000000
O    -4.763000000    -5.450000000    -2.965000000
H    -5.389000000    -4.935000000    -3.474000000
H    -3.969000000    -4.915000000    -2.952000000
O     4.223000000     4.496000000    -1.572000000
H     3.960000000     3.596000000    -1.765000000
H     4.906000000     4.408000000    -0.907000000
O    -5.802000000     0.107000000     0.477000000
H    -5.622000000    -0.808000000     0.692000000
H    -6.756000000     0.179000000     0.519000000
O    -3.621000000    -3.563000000     1.371000000
H    -2.829000000    -3.951000000     0.999000000
H    -4.212000000    -3.464000000     0.625000000
O    -4.424000000     2.408000000     2.693000000
H    -4.781000000     2.034000000     1.888000000
H    -4.146000000     3.290000000     2.445000000
O    -2.473000000     1.789000000     4.881000000
H    -3.242000000     2.004000000     4.353000000
H    -1.939000000     2.583000000     4.861000000
O     0.062000000    -4.770000000    -2.542000000
H     0.381000000    -5.673000000    -2.520000000
H    -0.681000000    -4.794000000    -3.145000000
O     5.093000000     3.343000000     2.442000000
H     4.464000000     2.791000000     1.977000000
H     5.925000000     2.875000000     2.363000000
O     6.762000000     4.045000000    -0.289000000
H     7.401000000     3.853000000    -0.975000000
H     6.429000000     3.187000000    -0.026000000
O     4.552000000     0.467000000     3.724000000
H     4.054000000     1.016000000     3.119000000
H     5.411000000     0.374000000     3.313000000
O     2.371000000    -3.463000000     1.295000000
H     1.450000000    -3.215000000     1.213000000
H     2.388000000    -4.080000000     2.027000000
O    -1.621000000     4.571000000     0.781000000
H    -2.159000000     4.920000000     1.491000000
H    -0.881000000     4.156000000     1.223000000
O     5.822000000    -0.145000000    -2.995000000
H     4.927000000    -0.170000000    -3.334000000
H     6.114000000     0.752000000    -3.158000000
O    -7.914000000     0.185000000    -2.376000000
H    -8.477000000     0.159000000    -1.603000000
H    -7.118000000    -0.276000000    -2.109000000
O     4.757000000    -2.248000000     1.270000000
H     4.604000000    -1.387000000     0.882000000
H     3.987000000    -2.762000000     1.026000000
O    -3.498000000     0.958000000    -3.046000000
H    -2.772000000     1.403000000    -3.484000000
H    -3.914000000     1.640000000    -2.518000000
O     3.427000000     2.043000000    -1.951000000
H     3.468000000     1.462000000    -1.191000000
H     2.656000000     1.748000000    -2.436000000
O     1.735000000    -0.566000000     5.462000000
H     1.327000000    -1.132000000     6.117000000
H     2.540000000    -1.023000000     5.219000000
O    -5.264000000     2.090000000    -1.118000000
H    -5.402000000     1.502000000    -0.376000000
H    -6.050000000     1.989000000    -1.655000000
O    -1.848000000    -4.613000000    -4.628000000
H    -1.247000000    -4.343000000    -5.322000000
H    -2.514000000    -5.134000000    -5.077000000
O    -2.968000000    -1.369000000     3.759000000
H    -2.619000000    -0.559000000     3.386000000
H    -3.178000000    -1.912000000     2.999000000
