158
-3042.11184
C     0.992000000    -0.938000000     0.570000000
H     1.653000000    -1.712000000     0.951000000
C    -0.248000000    -1.294000000    -0.002000000
H    -0.620000000    -2.314000000     0.036000000
C    -1.062000000    -0.289000000    -0.524000000
H    -2.089000000    -0.516000000    -0.779000000
C    -0.587000000     0.956000000    -0.545000000
H    -1.252000000     1.764000000    -0.838000000
C     0.611000000     1.341000000     0.012000000
H     0.916000000     2.382000000    -0.058000000
C     1.431000000     0.400000000     0.612000000
C     2.793000000     0.701000000     1.256000000
O     3.297000000    -0.089000000     2.027000000
O     3.221000000     1.807000000     1.165000000
O    -3.757000000    -3.700000000    -0.420000000
H    -4.192000000    -4.010000000     0.374000000
H    -3.086000000    -4.358000000    -0.599000000
O     0.938000000    -6.002000000     3.208000000
H     1.408000000    -5.935000000     2.377000000
H     1.269000000    -5.271000000     3.730000000
O    -4.601000000    -2.583000000    -2.779000000
H    -5.119000000    -1.795000000    -2.616000000
H    -4.520000000    -2.999000000    -1.921000000
O    -6.442000000     0.583000000    -1.765000000
H    -6.336000000     1.067000000    -2.584000000
H    -7.378000000     0.384000000    -1.724000000
O     1.343000000     1.617000000    -3.184000000
H     0.553000000     1.907000000    -2.727000000
H     1.516000000     2.307000000    -3.825000000
O    -4.645000000     4.726000000     0.534000000
H    -4.325000000     5.149000000    -0.263000000
H    -3.856000000     4.390000000     0.960000000
O    -2.306000000    -5.818000000    -1.073000000
H    -1.754000000    -5.884000000    -1.852000000
H    -3.052000000    -6.388000000    -1.259000000
O    -4.045000000     1.392000000    -0.774000000
H    -3.585000000     1.927000000    -1.421000000
H    -4.867000000     1.152000000    -1.202000000
O    -0.488000000    -4.589000000     0.606000000
H    -1.013000000    -5.120000000     0.007000000
H     0.416000000    -4.848000000     0.427000000
O    -0.082000000    -5.215000000    -2.453000000
H     0.497000000    -4.472000000    -2.284000000
H     0.510000000    -5.936000000    -2.667000000
O    -2.656000000    -1.535000000    -5.602000000
H    -2.558000000    -2.308000000    -5.047000000
H    -2.240000000    -0.830000000    -5.106000000
O     4.475000000     4.229000000     3.538000000
H     4.834000000     3.499000000     4.043000000
H     3.539000000     4.038000000     3.474000000
O    -1.025000000    -0.112000000     2.665000000
H    -0.676000000     0.187000000     1.825000000
H    -1.963000000    -0.226000000     2.508000000
O     8.214000000    -0.768000000     1.236000000
H     7.375000000    -0.309000000     1.280000000
H     8.278000000    -1.063000000     0.327000000
O     6.031000000     4.827000000     0.079000000
H     6.371000000     5.166000000     0.907000000
H     5.089000000     4.991000000     0.122000000
O    -4.916000000     1.736000000    -4.255000000
H    -4.555000000     2.250000000    -3.533000000
H    -4.156000000     1.310000000    -4.650000000
O    -1.835000000    -3.592000000    -3.737000000
H    -1.451000000    -4.282000000    -3.196000000
H    -2.592000000    -3.288000000    -3.236000000
O     2.100000000    -3.574000000    -2.616000000
H     1.675000000    -2.730000000    -2.771000000
H     2.917000000    -3.352000000    -2.169000000
O    -1.459000000     0.870000000    -4.747000000
H    -0.967000000     1.662000000    -4.530000000
H    -1.918000000     1.088000000    -5.558000000
O    -0.742000000     3.561000000    -3.801000000
H    -1.244000000     3.981000000    -4.499000000
H     0.006000000     4.141000000    -3.662000000
O     5.980000000    -3.264000000     1.004000000
H     5.330000000    -3.413000000     1.690000000
H     6.755000000    -3.740000000     1.301000000
O     4.356000000    -2.945000000    -1.321000000
H     5.040000000    -3.213000000    -1.934000000
H     4.731000000    -3.113000000    -0.456000000
O     0.990000000    -1.004000000    -3.077000000
H     0.989000000    -0.051000000    -3.163000000
H     0.183000000    -1.203000000    -2.602000000
O     5.204000000    -0.310000000    -1.198000000
H     4.912000000    -1.142000000    -0.824000000
H     5.183000000    -0.452000000    -2.144000000
O     4.023000000     2.427000000    -2.229000000
H     4.432000000     1.798000000    -1.633000000
H     3.168000000     2.046000000    -2.429000000
O     1.933000000     2.985000000     3.168000000
H     1.607000000     2.246000000     3.682000000
H     2.263000000     2.589000000     2.361000000
O    -4.370000000    -1.196000000     3.154000000
H    -4.437000000    -0.485000000     2.517000000
H    -3.868000000    -0.823000000     3.878000000
O    -3.496000000     1.270000000     1.821000000
H    -3.688000000     1.243000000     0.883000000
H    -2.978000000     2.066000000     1.937000000
O    -2.995000000     3.325000000    -2.305000000
H    -2.990000000     4.114000000    -1.764000000
H    -2.434000000     3.541000000    -3.050000000
O    -4.858000000    -3.639000000     2.275000000
H    -5.712000000    -3.824000000     2.666000000
H    -4.685000000    -2.725000000     2.499000000
O     2.628000000     7.171000000    -0.362000000
H     3.528000000     7.486000000    -0.448000000
H     2.719000000     6.241000000    -0.156000000
O     3.722000000     2.212000000     6.435000000
H     3.506000000     1.373000000     6.844000000
H     4.016000000     1.980000000     5.554000000
O     5.181000000    -2.396000000     6.068000000
H     5.790000000    -2.220000000     6.786000000
H     5.581000000    -1.976000000     5.306000000
O     6.359000000     1.060000000     1.173000000
H     6.031000000     1.943000000     1.341000000
H     5.790000000     0.721000000     0.482000000
O     0.572000000     4.932000000     1.390000000
H     0.782000000     4.386000000     2.148000000
H     1.306000000     4.800000000     0.789000000
O     4.331000000    -2.383000000     3.028000000
H     4.131000000    -1.545000000     2.610000000
H     5.214000000    -2.271000000     3.379000000
O     4.741000000     1.133000000     4.067000000
H     5.298000000     0.363000000     3.952000000
H     4.104000000     1.076000000     3.356000000
O    -6.657000000    -2.884000000     0.184000000
H    -7.178000000    -3.278000000    -0.516000000
H    -5.819000000    -3.346000000     0.148000000
O    -6.966000000    -0.452000000     1.370000000
H    -6.873000000    -1.256000000     0.860000000
H    -6.417000000     0.186000000     0.914000000
O     3.195000000     4.307000000     0.038000000
H     3.300000000     3.514000000     0.563000000
H     3.330000000     4.017000000    -0.864000000
O     3.198000000    -0.342000000     6.774000000
H     2.530000000    -0.187000000     6.106000000
H     3.784000000    -0.989000000     6.381000000
O     1.865000000    -5.747000000     0.420000000
H     2.297000000    -5.309000000    -0.314000000
H     2.191000000    -6.646000000     0.389000000
O    -1.999000000     4.064000000     1.306000000
H    -1.864000000     3.890000000     2.237000000
H    -1.262000000     4.621000000     1.056000000
O     2.965000000    -4.227000000     4.561000000
H     3.491000000    -4.314000000     5.355000000
H     3.433000000    -3.580000000     4.033000000
O     1.862000000     5.317000000    -2.505000000
H     2.222000000     5.821000000    -1.775000000
H     1.446000000     5.972000000    -3.066000000
O     6.706000000    -1.436000000     3.940000000
H     7.295000000    -2.162000000     4.144000000
H     7.127000000    -0.983000000     3.210000000
O    -0.476000000    -3.491000000     3.090000000
H    -0.566000000    -4.113000000     2.368000000
H    -0.581000000    -2.632000000     2.680000000
O     1.405000000     0.001000000     4.352000000
H     0.457000000    -0.029000000     4.220000000
H     1.763000000    -0.531000000     3.641000000
