158
-3055.12471
C    -0.204000000    -0.859000000     1.163000000
H    -0.225000000    -1.657000000     1.901000000
C    -0.529000000    -1.159000000    -0.146000000
H    -0.880000000    -2.141000000    -0.454000000
C    -0.354000000    -0.246000000    -1.161000000
H    -0.558000000    -0.485000000    -2.195000000
C     0.026000000     1.073000000    -0.802000000
H     0.201000000     1.813000000    -1.579000000
C     0.363000000     1.365000000     0.492000000
H     0.647000000     2.371000000     0.792000000
C     0.291000000     0.419000000     1.505000000
C     0.919000000     0.629000000     2.905000000
O     1.420000000    -0.335000000     3.538000000
O     1.221000000     1.788000000     3.178000000
O    -2.031000000    -4.322000000     0.768000000
H    -1.298000000    -4.210000000     1.373000000
H    -1.799000000    -5.091000000     0.249000000
O    -0.766000000     3.492000000    -4.251000000
H    -0.649000000     3.960000000    -3.425000000
H    -1.652000000     3.721000000    -4.533000000
O     0.336000000     3.239000000     5.047000000
H    -0.591000000     3.002000000     5.054000000
H     0.705000000     2.743000000     4.316000000
O    -3.891000000    -3.950000000     3.903000000
H    -3.724000000    -4.868000000     4.115000000
H    -3.125000000    -3.484000000     4.238000000
O     3.598000000     0.565000000     0.721000000
H     3.317000000     1.439000000     0.993000000
H     4.406000000     0.411000000     1.210000000
O    -1.265000000     1.378000000    -7.675000000
H    -0.622000000     2.072000000    -7.821000000
H    -0.784000000     0.702000000    -7.198000000
O     2.964000000    -3.966000000     4.598000000
H     3.349000000    -4.822000000     4.784000000
H     3.283000000    -3.744000000     3.723000000
O    -4.390000000    -1.419000000    -0.840000000
H    -4.433000000    -1.900000000    -0.014000000
H    -3.734000000    -0.739000000    -0.688000000
O    -0.640000000    -0.960000000    -5.030000000
H    -1.281000000    -0.456000000    -4.528000000
H     0.155000000    -0.427000000    -5.005000000
O    -0.138000000    -2.469000000    -7.310000000
H    -0.262000000    -1.975000000    -6.499000000
H     0.549000000    -3.103000000    -7.101000000
O     0.214000000    -4.419000000     2.874000000
H     0.138000000    -5.367000000     2.765000000
H     1.140000000    -4.273000000     3.068000000
O    -6.105000000    -1.765000000    -2.893000000
H    -5.709000000    -1.258000000    -3.601000000
H    -5.650000000    -1.471000000    -2.104000000
O    -1.405000000    -3.901000000    -4.442000000
H    -2.021000000    -3.848000000    -3.711000000
H    -1.012000000    -3.030000000    -4.488000000
O     2.852000000     5.561000000     3.607000000
H     3.450000000     5.246000000     4.285000000
H     2.268000000     6.166000000     4.065000000
O    -1.051000000    -2.655000000     4.263000000
H    -0.331000000    -2.424000000     4.851000000
H    -0.636000000    -3.160000000     3.564000000
O     2.974000000    -2.796000000    -5.650000000
H     3.907000000    -2.841000000    -5.440000000
H     2.816000000    -3.562000000    -6.202000000
O    -0.104000000     5.725000000    -2.153000000
H     0.036000000     6.613000000    -2.481000000
H     0.071000000     5.786000000    -1.214000000
O    -2.065000000     0.957000000    -3.972000000
H    -1.575000000     1.655000000    -4.407000000
H    -2.755000000     1.413000000    -3.490000000
O     3.092000000    -2.346000000     2.158000000
H     2.392000000    -1.801000000     2.517000000
H     3.709000000    -1.722000000     1.776000000
O     0.289000000    -4.505000000    -1.112000000
H    -0.438000000    -4.753000000    -1.683000000
H     0.700000000    -3.764000000    -1.556000000
O     1.517000000    -2.685000000    -2.995000000
H     1.842000000    -2.042000000    -2.365000000
H     2.179000000    -2.699000000    -3.686000000
O     2.630000000    -0.933000000    -1.151000000
H     1.832000000    -0.470000000    -0.896000000
H     3.270000000    -0.692000000    -0.481000000
O     2.554000000     3.425000000    -1.210000000
H     1.668000000     3.111000000    -1.032000000
H     2.589000000     3.515000000    -2.163000000
O    -1.159000000    -0.174000000     8.031000000
H    -0.565000000    -0.517000000     7.364000000
H    -2.009000000    -0.126000000     7.593000000
O     5.786000000     3.511000000     0.431000000
H     4.896000000     3.332000000     0.733000000
H     6.206000000     2.652000000     0.398000000
O     0.871000000     4.603000000     2.063000000
H     1.580000000     4.841000000     2.661000000
H     0.721000000     3.672000000     2.228000000
O     2.705000000     3.085000000     6.558000000
H     1.866000000     3.302000000     6.152000000
H     2.968000000     2.264000000     6.142000000
O    -2.638000000    -3.376000000    -2.062000000
H    -3.186000000    -4.084000000    -1.725000000
H    -2.985000000    -2.586000000    -1.647000000
O    -4.844000000     0.290000000    -4.175000000
H    -5.315000000     0.733000000    -4.880000000
H    -3.984000000     0.094000000    -4.547000000
O     3.341000000     3.792000000    -3.886000000
H     3.872000000     3.217000000    -4.438000000
H     2.756000000     4.238000000    -4.499000000
O     1.451000000     0.767000000    -5.706000000
H     1.801000000     1.061000000    -6.547000000
H     2.152000000     0.945000000    -5.079000000
O    -3.357000000    -0.553000000     4.418000000
H    -2.999000000    -1.053000000     5.152000000
H    -3.612000000    -1.218000000     3.778000000
O    -2.485000000     2.025000000     1.156000000
H    -2.280000000     2.867000000     0.751000000
H    -1.933000000     1.395000000     0.692000000
O     0.866000000     5.659000000     6.211000000
H     0.844000000     4.921000000     5.601000000
H     0.049000000     5.588000000     6.703000000
O    -2.759000000     2.145000000     3.811000000
H    -2.919000000     1.250000000     4.110000000
H    -2.366000000     2.042000000     2.944000000
O     3.497000000     2.840000000     2.287000000
H     3.231000000     3.741000000     2.470000000
H     2.849000000     2.301000000     2.741000000
O    -0.472000000     6.215000000     0.320000000
H    -0.019000000     5.863000000     1.086000000
H    -0.844000000     7.044000000     0.621000000
O     2.850000000    -5.000000000    -2.980000000
H     2.058000000    -4.462000000    -2.965000000
H     3.359000000    -4.697000000    -2.228000000
O     3.752000000     0.296000000     4.773000000
H     4.208000000    -0.544000000     4.825000000
H     2.923000000     0.093000000     4.341000000
O    -4.164000000    -2.767000000     1.514000000
H    -4.357000000    -3.120000000     2.382000000
H    -3.494000000    -3.353000000     1.161000000
O     3.831000000    -3.703000000    -0.934000000
H     3.413000000    -4.058000000    -0.150000000
H     3.648000000    -2.764000000    -0.899000000
O     2.749000000     5.698000000     0.106000000
H     1.876000000     5.854000000     0.469000000
H     2.669000000     4.865000000    -0.358000000
O     2.169000000    -4.940000000     0.838000000
H     1.528000000    -4.929000000     0.127000000
H     1.918000000    -4.206000000     1.398000000
O    -3.437000000     2.825000000    -2.313000000
H    -3.100000000     3.499000000    -1.724000000
H    -4.128000000     3.265000000    -2.810000000
O     1.350000000     4.862000000    -5.203000000
H     0.862000000     5.512000000    -5.709000000
H     0.675000000     4.350000000    -4.758000000
O     2.943000000    -2.701000000     6.926000000
H     3.015000000    -3.010000000     6.023000000
H     2.558000000    -3.438000000     7.401000000
O     0.792000000    -1.104000000     6.350000000
H     1.581000000    -1.543000000     6.670000000
H     1.048000000    -0.740000000     5.502000000
O    -2.504000000     4.493000000    -0.476000000
H    -3.063000000     4.796000000     0.240000000
H    -1.731000000     5.055000000    -0.430000000
