158
-3037.53928
C     0.544000000    -0.482000000    -1.333000000
H     0.900000000    -0.758000000    -2.322000000
C    -0.766000000    -0.397000000    -1.024000000
H    -1.515000000    -0.778000000    -1.713000000
C    -1.204000000     0.011000000     0.241000000
H    -2.224000000     0.086000000     0.379000000
C    -0.288000000     0.321000000     1.237000000
H    -0.593000000     0.613000000     2.239000000
C     1.095000000     0.263000000     0.938000000
H     1.713000000     0.524000000     1.793000000
C     1.493000000    -0.096000000    -0.365000000
C     2.977000000     0.067000000    -0.777000000
O     3.419000000    -0.666000000    -1.650000000
O     3.727000000     0.746000000    -0.128000000
O     2.584000000     3.261000000    -0.329000000
H     1.994000000     3.290000000     0.424000000
H     2.967000000     2.384000000    -0.299000000
O     2.846000000    -1.545000000     3.297000000
H     2.339000000    -2.262000000     2.916000000
H     3.515000000    -1.979000000     3.826000000
O     4.609000000     0.227000000    -3.813000000
H     4.447000000    -0.622000000    -4.225000000
H     4.349000000     0.104000000    -2.900000000
O    -4.140000000     2.066000000    -1.529000000
H    -4.368000000     2.070000000    -0.600000000
H    -4.273000000     2.971000000    -1.812000000
O     1.314000000    -4.223000000    -4.255000000
H     0.506000000    -4.569000000    -4.636000000
H     1.983000000    -4.396000000    -4.917000000
O     3.183000000    -3.251000000     0.796000000
H     3.143000000    -3.227000000    -0.161000000
H     2.286000000    -3.445000000     1.068000000
O    -2.524000000     4.688000000    -0.719000000
H    -1.822000000     5.297000000    -0.948000000
H    -2.206000000     3.835000000    -1.012000000
O    -5.557000000     4.066000000     0.451000000
H    -5.642000000     3.205000000     0.860000000
H    -4.659000000     4.335000000     0.641000000
O    -3.731000000    -0.473000000     2.643000000
H    -3.168000000    -0.242000000     3.383000000
H    -4.056000000     0.367000000     2.318000000
O     6.059000000    -1.232000000    -0.891000000
H     6.531000000    -0.440000000    -0.634000000
H     5.142000000    -0.960000000    -0.938000000
O    -3.558000000    -2.929000000     1.355000000
H    -3.409000000    -2.733000000     0.430000000
H    -3.499000000    -2.079000000     1.792000000
O     6.396000000     1.581000000    -0.558000000
H     5.496000000     1.280000000    -0.436000000
H     6.483000000     2.326000000     0.037000000
O     3.660000000     4.460000000    -2.598000000
H     3.890000000     3.828000000    -1.917000000
H     2.947000000     4.973000000    -2.217000000
O     0.009000000     3.518000000     4.148000000
H     0.780000000     3.468000000     3.582000000
H    -0.633000000     4.010000000     3.636000000
O     2.285000000     4.755000000     2.402000000
H     3.014000000     4.491000000     1.840000000
H     2.655000000     4.767000000     3.284000000
O     5.284000000     2.868000000     4.508000000
H     4.526000000     2.283000000     4.498000000
H     4.907000000     3.746000000     4.559000000
O    -1.140000000     1.792000000    -4.462000000
H    -1.157000000     2.749000000    -4.485000000
H    -0.266000000     1.576000000    -4.138000000
O    -0.339000000     2.799000000    -1.399000000
H    -0.545000000     2.102000000    -0.777000000
H    -0.169000000     2.342000000    -2.223000000
O    -4.492000000    -0.079000000    -3.098000000
H    -3.614000000    -0.376000000    -3.337000000
H    -4.348000000     0.752000000    -2.645000000
O     5.129000000     0.311000000     2.517000000
H     4.398000000    -0.254000000     2.265000000
H     5.634000000    -0.213000000     3.139000000
O    -0.123000000     1.525000000     6.183000000
H    -1.034000000     1.610000000     6.464000000
H    -0.005000000     2.222000000     5.537000000
O    -5.975000000    -2.774000000    -3.685000000
H    -5.374000000    -2.118000000    -3.330000000
H    -6.786000000    -2.292000000    -3.847000000
O    -2.532000000    -0.220000000     5.103000000
H    -2.735000000     0.100000000     5.982000000
H    -1.853000000    -0.881000000     5.240000000
O    -0.309000000    -3.633000000    -2.111000000
H     0.379000000    -3.094000000    -1.721000000
H    -0.032000000    -3.752000000    -3.020000000
O     8.231000000    -1.404000000    -2.548000000
H     8.642000000    -0.716000000    -2.025000000
H     7.495000000    -1.704000000    -2.014000000
O    -3.438000000    -3.532000000    -1.582000000
H    -4.006000000    -4.183000000    -1.993000000
H    -2.724000000    -3.408000000    -2.208000000
O    -0.214000000    -2.368000000    -5.872000000
H    -0.926000000    -2.922000000    -6.192000000
H     0.572000000    -2.726000000    -6.284000000
O    -4.230000000    -2.973000000     4.397000000
H    -5.054000000    -2.487000000     4.429000000
H    -3.945000000    -2.902000000     3.486000000
O     1.637000000     1.918000000    -3.447000000
H     2.002000000     2.801000000    -3.389000000
H     2.402000000     1.344000000    -3.478000000
O    -5.289000000     1.256000000     1.157000000
H    -5.811000000     0.993000000     1.916000000
H    -5.574000000     0.671000000     0.456000000
O     5.118000000     2.859000000     1.865000000
H     5.004000000     1.914000000     1.764000000
H     5.577000000     2.958000000     2.699000000
O     1.194000000     5.199000000    -1.709000000
H     1.367000000     4.278000000    -1.513000000
H     0.341000000     5.373000000    -1.311000000
O     5.216000000     5.565000000     1.245000000
H     5.619000000     5.401000000     2.098000000
H     5.037000000     4.693000000     0.893000000
O     0.217000000     0.460000000    -7.085000000
H     0.014000000    -0.304000000    -6.544000000
H     1.151000000     0.377000000    -7.276000000
O    -1.449000000     4.961000000     2.151000000
H    -1.591000000     5.184000000     1.231000000
H    -0.728000000     5.529000000     2.426000000
O     6.706000000    -3.925000000    -1.252000000
H     6.229000000    -3.098000000    -1.317000000
H     7.105000000    -3.904000000    -0.382000000
O     5.159000000    -2.320000000    -4.962000000
H     5.869000000    -1.684000000    -4.879000000
H     5.032000000    -2.417000000    -5.905000000
O    -1.352000000    -4.483000000     3.387000000
H    -1.846000000    -4.191000000     2.621000000
H    -2.015000000    -4.839000000     3.978000000
O    -6.066000000    -1.211000000    -0.818000000
H    -5.434000000    -1.906000000    -1.005000000
H    -5.826000000    -0.502000000    -1.414000000
O    -1.286000000    -5.706000000    -0.429000000
H    -1.919000000    -5.004000000    -0.280000000
H    -0.634000000    -5.320000000    -1.014000000
O    -6.233000000    -4.385000000     1.208000000
H    -5.451000000    -3.862000000     1.030000000
H    -6.963000000    -3.792000000     1.029000000
O     5.350000000    -2.969000000     2.442000000
H     4.553000000    -3.100000000     1.929000000
H     5.835000000    -2.297000000     1.964000000
O     3.265000000    -3.294000000    -1.786000000
H     3.547000000    -3.672000000    -2.619000000
H     3.296000000    -2.348000000    -1.930000000
O     7.755000000     3.192000000    -2.592000000
H     7.144000000     2.789000000    -1.975000000
H     7.473000000     2.874000000    -3.450000000
O     6.537000000     2.050000000    -4.712000000
H     5.894000000     2.759000000    -4.682000000
H     6.028000000     1.258000000    -4.536000000
O    -2.037000000    -0.756000000    -4.289000000
H    -1.228000000    -1.164000000    -4.595000000
H    -1.859000000     0.184000000    -4.322000000
O     1.169000000    -0.959000000     5.458000000
H     0.694000000    -0.145000000     5.626000000
H     1.560000000    -0.835000000     4.593000000
O     3.444000000     0.823000000     5.713000000
H     2.616000000     0.550000000     5.317000000
H     3.808000000     0.020000000     6.086000000
