158
-3052.52371
C     1.064000000    -1.020000000    -0.356000000
H     1.811000000    -1.744000000    -0.671000000
C    -0.252000000    -1.024000000    -0.813000000
H    -0.675000000    -1.734000000    -1.520000000
C    -1.119000000    -0.005000000    -0.388000000
H    -2.140000000    -0.141000000    -0.704000000
C    -0.708000000     1.042000000     0.418000000
H    -1.372000000     1.829000000     0.765000000
C     0.585000000     1.068000000     0.934000000
H     0.893000000     1.970000000     1.456000000
C     1.446000000    -0.024000000     0.570000000
C     2.836000000    -0.032000000     0.970000000
O     3.416000000    -1.071000000     1.126000000
O     3.234000000     1.034000000     1.383000000
O     7.399000000     0.343000000     0.568000000
H     8.323000000     0.306000000     0.319000000
H     6.925000000     0.137000000    -0.238000000
O     1.375000000    -0.345000000     4.242000000
H     0.898000000     0.292000000     3.710000000
H     2.222000000     0.068000000     4.408000000
O     1.866000000     1.973000000    -2.151000000
H     1.633000000     2.031000000    -1.224000000
H     2.680000000     1.470000000    -2.162000000
O    -0.493000000     4.742000000     3.557000000
H    -0.367000000     5.673000000     3.736000000
H    -0.452000000     4.673000000     2.604000000
O     3.105000000    -5.185000000     3.678000000
H     2.650000000    -4.380000000     3.433000000
H     2.442000000    -5.870000000     3.591000000
O    -0.520000000     1.968000000    -6.666000000
H    -0.655000000     1.690000000    -5.760000000
H    -1.403000000     2.115000000    -7.006000000
O     2.330000000    -4.271000000    -1.242000000
H     1.550000000    -4.400000000    -1.782000000
H     2.563000000    -5.151000000    -0.944000000
O     6.070000000    -4.993000000    -1.362000000
H     5.657000000    -4.156000000    -1.147000000
H     7.005000000    -4.840000000    -1.222000000
O    -7.091000000     3.796000000    -2.304000000
H    -7.682000000     3.065000000    -2.485000000
H    -6.214000000     3.427000000    -2.409000000
O     0.039000000    -4.287000000    -3.195000000
H    -0.292000000    -4.524000000    -2.328000000
H    -0.441000000    -3.491000000    -3.424000000
O    -3.377000000     4.794000000    -0.088000000
H    -3.392000000     5.176000000     0.790000000
H    -3.024000000     5.487000000    -0.645000000
O    -3.261000000     0.615000000     3.295000000
H    -3.247000000     0.049000000     4.068000000
H    -2.370000000     0.959000000     3.234000000
O    -3.478000000    -5.930000000    -2.961000000
H    -2.827000000    -6.482000000    -2.529000000
H    -2.982000000    -5.173000000    -3.272000000
O    -0.858000000     1.835000000     4.106000000
H    -0.571000000     1.518000000     4.963000000
H    -0.571000000     2.748000000     4.080000000
O     1.042000000     4.246000000    -1.070000000
H     1.667000000     4.963000000    -1.182000000
H     1.356000000     3.560000000    -1.659000000
O    -2.814000000    -3.732000000    -4.216000000
H    -3.117000000    -4.007000000    -5.081000000
H    -2.999000000    -2.793000000    -4.185000000
O    -0.434000000     1.258000000    -3.729000000
H     0.229000000     1.337000000    -3.043000000
H    -0.884000000     2.102000000    -3.725000000
O    -1.538000000     3.531000000    -2.776000000
H    -1.204000000     4.340000000    -3.164000000
H    -1.362000000     3.623000000    -1.840000000
O    -8.397000000    -0.530000000     0.730000000
H    -7.474000000    -0.461000000     0.976000000
H    -8.773000000    -1.126000000     1.378000000
O    -4.909000000     1.275000000     1.100000000
H    -4.801000000     0.505000000     0.541000000
H    -4.079000000     1.346000000     1.572000000
O    -0.003000000    -4.510000000     1.709000000
H     0.643000000    -3.858000000     1.981000000
H     0.116000000    -5.236000000     2.321000000
O     4.042000000    -0.026000000    -1.976000000
H     4.176000000    -0.189000000    -2.909000000
H     4.488000000    -0.752000000    -1.540000000
O    -3.638000000    -3.246000000    -0.918000000
H    -4.084000000    -2.462000000    -1.238000000
H    -4.290000000    -3.943000000    -1.000000000
O     2.872000000     2.921000000     5.396000000
H     3.227000000     2.175000000     4.913000000
H     2.146000000     2.555000000     5.902000000
O    -5.773000000    -3.389000000    -3.510000000
H    -5.970000000    -3.113000000    -4.405000000
H    -5.125000000    -4.087000000    -3.612000000
O     5.033000000    -3.272000000     4.743000000
H     4.578000000    -3.969000000     4.271000000
H     5.062000000    -2.543000000     4.123000000
O    -1.107000000    -4.402000000    -0.906000000
H    -0.909000000    -4.594000000     0.011000000
H    -1.836000000    -3.783000000    -0.869000000
O     6.240000000     2.127000000     2.321000000
H     7.057000000     2.075000000     2.815000000
H     6.302000000     1.419000000     1.679000000
O    -2.322000000     6.819000000     2.066000000
H    -1.993000000     7.717000000     2.119000000
H    -1.625000000     6.335000000     1.623000000
O    -3.530000000    -2.664000000     1.676000000
H    -3.456000000    -2.717000000     0.724000000
H    -2.735000000    -2.207000000     1.952000000
O     3.313000000     5.474000000     4.348000000
H     3.007000000     4.583000000     4.519000000
H     2.735000000     6.030000000     4.871000000
O    -6.527000000     1.022000000     3.684000000
H    -5.640000000     1.189000000     3.366000000
H    -7.095000000     1.467000000     3.055000000
O    -4.043000000     2.809000000    -2.082000000
H    -3.974000000     3.337000000    -1.287000000
H    -3.184000000     2.884000000    -2.496000000
O    -5.654000000     1.250000000    -3.714000000
H    -5.380000000     1.554000000    -4.579000000
H    -5.087000000     1.721000000    -3.104000000
O     3.707000000     3.584000000     2.395000000
H     3.271000000     2.745000000     2.244000000
H     4.631000000     3.358000000     2.501000000
O    -0.278000000     5.318000000     0.950000000
H    -0.115000000     4.820000000     0.149000000
H     0.518000000     5.834000000     1.078000000
O     1.879000000    -2.772000000     2.745000000
H     1.693000000    -2.096000000     3.397000000
H     2.336000000    -2.308000000     2.044000000
O     5.581000000    -4.884000000     1.801000000
H     5.017000000    -5.646000000     1.670000000
H     5.250000000    -4.232000000     1.183000000
O     5.546000000    -1.519000000     2.661000000
H     6.436000000    -1.455000000     2.315000000
H     4.984000000    -1.465000000     1.888000000
O    -5.833000000    -1.878000000     3.212000000
H    -5.720000000    -0.928000000     3.197000000
H    -5.096000000    -2.215000000     2.702000000
O    -1.155000000    -1.512000000     2.123000000
H    -0.408000000    -2.086000000     1.957000000
H    -1.023000000    -0.771000000     1.532000000
O     4.115000000     0.556000000     3.994000000
H     4.636000000    -0.244000000     3.932000000
H     3.916000000     0.784000000     3.086000000
O     4.546000000    -3.075000000    -0.139000000
H     4.203000000    -2.201000000     0.047000000
H     3.797000000    -3.558000000    -0.487000000
O     5.054000000     2.252000000    -0.576000000
H     4.565000000     2.292000000     0.246000000
H     4.559000000     1.639000000    -1.120000000
O     2.234000000     5.961000000     2.029000000
H     2.523000000     5.662000000     2.891000000
H     2.660000000     5.365000000     1.413000000
O    -3.175000000     4.129000000     4.529000000
H    -3.099000000     3.309000000     5.017000000
H    -2.288000000     4.302000000     4.212000000
O    -5.100000000    -1.033000000    -1.842000000
H    -5.332000000    -0.330000000    -2.449000000
H    -5.395000000    -1.832000000    -2.279000000
O    -1.383000000    -1.140000000    -4.663000000
H    -0.775000000    -0.689000000    -4.076000000
H    -1.549000000    -0.510000000    -5.365000000
