158
-3049.92635
C     0.438000000    -0.102000000    -1.417000000
H     0.610000000    -0.276000000    -2.476000000
C    -0.886000000    -0.451000000    -0.959000000
H    -1.641000000    -0.771000000    -1.673000000
C    -1.135000000    -0.314000000     0.410000000
H    -2.060000000    -0.521000000     0.806000000
C    -0.148000000     0.278000000     1.219000000
H    -0.389000000     0.278000000     2.279000000
C     1.130000000     0.550000000     0.769000000
H     1.873000000     0.727000000     1.542000000
C     1.436000000     0.387000000    -0.581000000
C     2.835000000     0.852000000    -1.044000000
O     3.019000000     0.838000000    -2.270000000
O     3.805000000     0.920000000    -0.238000000
O     3.158000000     3.841000000    -4.785000000
H     3.064000000     4.566000000    -4.167000000
H     3.894000000     3.331000000    -4.446000000
O    -7.536000000    -0.361000000     2.334000000
H    -8.042000000    -1.155000000     2.508000000
H    -6.717000000    -0.677000000     1.954000000
O     2.986000000    -2.511000000     1.726000000
H     2.293000000    -2.828000000     1.147000000
H     2.561000000    -2.411000000     2.577000000
O     1.334000000     1.839000000    -4.047000000
H     1.996000000     2.502000000    -4.242000000
H     1.711000000     1.328000000    -3.331000000
O    -0.237000000     3.489000000     2.880000000
H    -0.290000000     3.227000000     3.799000000
H    -0.764000000     4.286000000     2.827000000
O    -8.127000000     1.221000000    -0.879000000
H    -7.399000000     1.388000000    -0.280000000
H    -8.893000000     1.148000000    -0.310000000
O    -2.937000000     1.489000000    -2.348000000
H    -2.293000000     1.978000000    -2.859000000
H    -2.809000000     1.791000000    -1.449000000
O     1.273000000     1.322000000    -6.816000000
H     1.537000000     0.404000000    -6.877000000
H     1.146000000     1.473000000    -5.880000000
O     0.620000000    -2.908000000     0.223000000
H     0.805000000    -2.033000000    -0.117000000
H     0.015000000    -3.289000000    -0.413000000
O    -0.979000000     1.666000000     7.445000000
H    -1.414000000     1.259000000     6.696000000
H    -0.464000000     2.378000000     7.066000000
O     4.219000000    -1.308000000    -7.329000000
H     4.051000000    -0.839000000    -6.512000000
H     3.499000000    -1.936000000    -7.397000000
O     1.011000000    -2.961000000    -3.074000000
H     1.382000000    -3.843000000    -3.091000000
H     0.229000000    -3.041000000    -2.528000000
O    -5.441000000     1.863000000     0.436000000
H    -4.533000000     2.161000000     0.482000000
H    -5.441000000     1.023000000     0.896000000
O    -2.733000000    -1.029000000     3.156000000
H    -2.343000000    -1.901000000     3.091000000
H    -2.339000000    -0.649000000     3.941000000
O     5.761000000    -2.699000000    -3.804000000
H     4.953000000    -2.311000000    -4.140000000
H     6.460000000    -2.246000000    -4.276000000
O    -6.138000000    -3.270000000    -0.592000000
H    -5.936000000    -2.425000000    -0.994000000
H    -7.032000000    -3.172000000    -0.264000000
O     5.011000000     2.160000000    -3.339000000
H     4.342000000     1.718000000    -2.817000000
H     5.555000000     2.615000000    -2.696000000
O    -1.110000000     0.289000000     5.159000000
H    -0.586000000    -0.414000000     5.543000000
H    -0.466000000     0.914000000     4.826000000
O     1.192000000     4.104000000    -1.267000000
H     0.608000000     3.550000000    -1.786000000
H     1.662000000     3.492000000    -0.701000000
O    -5.185000000    -3.383000000     3.716000000
H    -4.618000000    -2.681000000     3.398000000
H    -5.138000000    -4.055000000     3.035000000
O    -0.971000000     3.004000000    -3.452000000
H    -1.030000000     3.588000000    -4.209000000
H    -0.287000000     2.376000000    -3.687000000
O    -4.686000000    -0.496000000    -1.290000000
H    -5.035000000    -0.898000000    -2.085000000
H    -3.984000000     0.076000000    -1.599000000
O     7.592000000    -2.087000000     1.299000000
H     7.006000000    -2.078000000     2.056000000
H     7.008000000    -2.034000000     0.543000000
O     4.528000000    -0.374000000     5.054000000
H     4.326000000    -1.294000000     5.230000000
H     4.654000000    -0.334000000     4.106000000
O     2.323000000     3.669000000     1.880000000
H     1.470000000     3.299000000     2.106000000
H     2.505000000     4.297000000     2.579000000
O    -2.426000000    -3.319000000     5.071000000
H    -3.382000000    -3.304000000     5.105000000
H    -2.174000000    -3.999000000     5.695000000
O    -1.377000000    -3.611000000    -1.732000000
H    -1.745000000    -3.457000000    -2.602000000
H    -2.140000000    -3.705000000    -1.162000000
O     6.674000000     3.122000000    -1.235000000
H     6.191000000     3.537000000    -0.521000000
H     7.541000000     3.526000000    -1.204000000
O     1.108000000    -1.451000000    -7.538000000
H     1.363000000    -2.301000000    -7.897000000
H     0.528000000    -1.664000000    -6.807000000
O    -2.721000000     2.795000000    -0.021000000
H    -2.122000000     2.347000000     0.576000000
H    -2.376000000     3.687000000    -0.082000000
O     7.962000000     2.103000000     1.578000000
H     8.040000000     1.186000000     1.317000000
H     8.322000000     2.594000000     0.839000000
O     7.910000000     0.502000000    -1.636000000
H     7.231000000     0.982000000    -1.161000000
H     7.990000000     0.966000000    -2.470000000
O    -2.931000000    -2.841000000    -3.831000000
H    -3.465000000    -2.097000000    -4.111000000
H    -3.359000000    -3.602000000    -4.224000000
O    -2.962000000    -0.526000000    -5.884000000
H    -2.517000000     0.100000000    -6.456000000
H    -3.837000000    -0.615000000    -6.260000000
O    -0.660000000    -2.600000000    -5.556000000
H    -0.464000000    -2.685000000    -4.623000000
H    -1.240000000    -1.840000000    -5.610000000
O     2.819000000     1.536000000     5.546000000
H     3.044000000     0.606000000     5.510000000
H     3.626000000     1.988000000     5.299000000
O     4.738000000     3.511000000     0.694000000
H     4.703000000     2.607000000     0.380000000
H     3.904000000     3.640000000     1.146000000
O     5.449000000    -2.062000000    -0.680000000
H     5.774000000    -1.589000000    -1.446000000
H     4.496000000    -1.988000000    -0.741000000
O    -3.475000000    -3.559000000     0.286000000
H    -4.367000000    -3.430000000    -0.037000000
H    -3.455000000    -4.472000000     0.575000000
O    -5.073000000    -0.719000000     1.380000000
H    -4.774000000    -0.800000000     0.475000000
H    -4.270000000    -0.732000000     1.900000000
O     4.917000000    -0.527000000     2.205000000
H     4.357000000    -1.295000000     2.099000000
H     4.584000000     0.103000000     1.565000000
O     3.301000000    -1.155000000    -4.054000000
H     2.404000000    -1.463000000    -3.925000000
H     3.373000000    -0.385000000    -3.490000000
O     7.661000000     1.477000000    -4.524000000
H     6.736000000     1.535000000    -4.286000000
H     7.897000000     2.367000000    -4.786000000
O     0.343000000    -4.938000000     2.816000000
H    -0.235000000    -4.350000000     2.329000000
H     0.085000000    -4.825000000     3.730000000
O    -4.227000000     2.900000000     3.381000000
H    -5.183000000     2.855000000     3.341000000
H    -3.997000000     2.406000000     4.168000000
O     0.735000000    -1.602000000     5.800000000
H     1.565000000    -1.958000000     6.118000000
H     0.382000000    -2.288000000     5.234000000
O    -1.373000000    -3.195000000     1.979000000
H    -0.739000000    -2.844000000     1.354000000
H    -2.184000000    -3.278000000     1.477000000
O     0.533000000     3.220000000     5.469000000
H     1.325000000     2.687000000     5.538000000
H     0.853000000     4.121000000     5.435000000
