158
-2981.35872
C    -1.129000000    -0.772000000     0.588000000
H    -1.898000000    -1.485000000     0.877000000
C    -0.102000000    -1.300000000    -0.243000000
H    -0.068000000    -2.304000000    -0.658000000
C     0.872000000    -0.442000000    -0.691000000
H     1.684000000    -0.802000000    -1.318000000
C     0.834000000     0.913000000    -0.446000000
H     1.594000000     1.610000000    -0.788000000
C    -0.051000000     1.428000000     0.499000000
H    -0.042000000     2.481000000     0.767000000
C    -1.031000000     0.559000000     1.051000000
C    -2.135000000     1.141000000     1.926000000
O    -2.252000000     2.355000000     2.217000000
O    -2.907000000     0.414000000     2.503000000
O     0.917000000     0.557000000     4.278000000
H     1.443000000     0.057000000     4.902000000
H     0.919000000     0.025000000     3.483000000
O    -5.253000000    -1.449000000     5.953000000
H    -4.760000000    -1.240000000     5.160000000
H    -4.958000000    -2.328000000     6.193000000
O    -2.274000000    -0.005000000     7.585000000
H    -1.374000000    -0.255000000     7.797000000
H    -2.228000000     0.317000000     6.685000000
O    -2.326000000     3.950000000    -3.117000000
H    -2.598000000     3.093000000    -2.788000000
H    -1.570000000     4.184000000    -2.578000000
O    -5.149000000     0.036000000     1.227000000
H    -5.427000000    -0.870000000     1.358000000
H    -4.295000000     0.089000000     1.657000000
O     7.663000000    -1.260000000    -0.266000000
H     6.871000000    -1.784000000    -0.382000000
H     7.353000000    -0.355000000    -0.255000000
O     2.518000000     4.039000000     0.984000000
H     2.120000000     4.887000000     0.784000000
H     3.042000000     4.201000000     1.769000000
O     3.279000000    -3.099000000    -4.708000000
H     2.622000000    -3.795000000    -4.688000000
H     3.816000000    -3.299000000    -5.476000000
O     4.426000000    -4.134000000    -2.700000000
H     4.466000000    -5.084000000    -2.587000000
H     3.970000000    -4.012000000    -3.533000000
O    -1.722000000     1.047000000     5.037000000
H    -2.152000000     1.146000000     4.187000000
H    -0.789000000     0.998000000     4.829000000
O    -6.587000000     0.576000000    -1.211000000
H    -6.006000000     0.272000000    -0.513000000
H    -6.042000000     0.568000000    -1.997000000
O     0.523000000     6.160000000     3.729000000
H     0.731000000     6.590000000     2.899000000
H     0.295000000     5.264000000     3.483000000
O     3.035000000    -5.181000000     0.180000000
H     3.655000000    -5.592000000    -0.422000000
H     2.174000000    -5.383000000    -0.187000000
O     0.817000000    -3.111000000    -6.318000000
H     1.706000000    -2.901000000    -6.604000000
H     0.529000000    -3.799000000    -6.918000000
O     5.109000000    -2.392000000    -0.283000000
H     5.057000000    -2.980000000    -1.036000000
H     4.437000000    -2.713000000     0.318000000
O    -1.444000000    -2.893000000     4.704000000
H    -0.957000000    -2.280000000     5.255000000
H    -2.278000000    -2.454000000     4.536000000
O    -1.798000000     1.374000000    -2.568000000
H    -0.977000000     1.036000000    -2.211000000
H    -1.765000000     1.150000000    -3.498000000
O    -2.989000000    -5.712000000    -0.434000000
H    -2.938000000    -6.535000000    -0.919000000
H    -2.078000000    -5.496000000    -0.233000000
O    -2.721000000     4.595000000     3.778000000
H    -2.522000000     3.803000000     3.279000000
H    -2.470000000     4.382000000     4.677000000
O     4.145000000     1.243000000    -1.007000000
H     5.026000000     1.122000000    -0.651000000
H     4.285000000     1.411000000    -1.939000000
O    -2.416000000     3.476000000     6.276000000
H    -3.217000000     3.475000000     6.799000000
H    -2.437000000     2.645000000     5.803000000
O    -5.077000000     5.343000000     2.893000000
H    -4.208000000     5.089000000     3.204000000
H    -5.393000000     4.577000000     2.414000000
O    -3.720000000    -1.516000000     3.850000000
H    -3.366000000    -0.832000000     3.282000000
H    -4.423000000    -1.914000000     3.337000000
O     3.654000000    -0.727000000    -3.320000000
H     3.249000000    -0.565000000    -2.468000000
H     3.780000000    -1.675000000    -3.349000000
O     0.230000000     3.439000000     3.547000000
H     0.220000000     2.632000000     4.063000000
H    -0.373000000     3.268000000     2.824000000
O    -0.882000000    -0.967000000    -4.870000000
H    -0.274000000    -1.661000000    -5.125000000
H    -1.282000000    -0.685000000    -5.693000000
O     3.590000000     5.572000000    -1.677000000
H     3.382000000     5.126000000    -2.498000000
H     3.365000000     4.939000000    -0.996000000
O     3.388000000     1.440000000     1.559000000
H     3.817000000     1.300000000     0.715000000
H     2.969000000     2.297000000     1.475000000
O     1.082000000     3.013000000    -3.918000000
H     0.736000000     3.836000000    -4.262000000
H     2.033000000     3.112000000    -3.971000000
O    -6.654000000     2.255000000     4.102000000
H    -6.935000000     3.077000000     3.702000000
H    -6.130000000     1.826000000     3.425000000
O     1.263000000     0.705000000    -6.600000000
H     2.204000000     0.638000000    -6.436000000
H     0.885000000    -0.038000000    -6.130000000
O     2.717000000    -4.898000000     2.934000000
H     2.466000000    -4.804000000     2.016000000
H     2.172000000    -5.614000000     3.260000000
O    -2.999000000    -2.144000000    -3.776000000
H    -2.399000000    -1.432000000    -4.000000000
H    -2.848000000    -2.805000000    -4.451000000
O    -1.330000000     4.818000000     0.837000000
H    -0.910000000     4.466000000     0.051000000
H    -1.671000000     4.047000000     1.291000000
O     5.163000000     1.939000000    -3.637000000
H     4.904000000     1.020000000    -3.713000000
H     6.118000000     1.915000000    -3.577000000
O     3.648000000    -0.682000000    -6.116000000
H     4.332000000    -1.279000000    -6.422000000
H     3.494000000    -0.940000000    -5.208000000
O    -4.662000000    -4.705000000     1.592000000
H    -5.311000000    -5.408000000     1.568000000
H    -4.142000000    -4.832000000     0.798000000
O    -5.785000000    -2.464000000     2.349000000
H    -6.622000000    -2.832000000     2.065000000
H    -5.189000000    -3.213000000     2.367000000
O    -5.093000000     2.942000000     1.698000000
H    -4.629000000     2.114000000     1.824000000
H    -5.001000000     3.128000000     0.764000000
O     1.978000000    -1.035000000     2.113000000
H     1.355000000    -1.165000000     1.399000000
H     2.597000000    -0.386000000     1.777000000
O    -4.843000000     1.365000000     6.582000000
H    -4.700000000     0.431000000     6.425000000
H    -5.241000000     1.685000000     5.772000000
O     0.954000000     6.190000000     0.995000000
H     0.748000000     7.007000000     0.541000000
H     0.117000000     5.728000000     1.048000000
O    -0.004000000    -4.484000000    -2.640000000
H    -0.755000000    -3.897000000    -2.726000000
H     0.069000000    -4.906000000    -3.496000000
O    -0.061000000     4.231000000    -1.719000000
H     0.579000000     4.892000000    -1.455000000
H     0.417000000     3.663000000    -2.324000000
O    -4.600000000     2.963000000    -0.853000000
H    -4.411000000     3.820000000    -1.235000000
H    -5.114000000     2.511000000    -1.522000000
O    -4.691000000     1.047000000    -2.983000000
H    -4.553000000     1.084000000    -3.930000000
H    -3.857000000     0.734000000    -2.632000000
O    -4.537000000    -2.779000000    -1.734000000
H    -3.906000000    -2.938000000    -1.033000000
H    -4.002000000    -2.528000000    -2.487000000
O    -2.235000000     7.354000000     2.986000000
H    -2.225000000     6.430000000     2.739000000
H    -1.594000000     7.420000000     3.695000000
