158
-3043.92976
C     0.370000000    -0.697000000    -1.227000000
H     0.549000000    -1.305000000    -2.110000000
C    -0.908000000    -0.589000000    -0.731000000
H    -1.745000000    -1.042000000    -1.257000000
C    -1.190000000     0.181000000     0.412000000
H    -2.202000000     0.238000000     0.863000000
C    -0.081000000     0.741000000     1.106000000
H    -0.297000000     1.327000000     1.996000000
C     1.242000000     0.588000000     0.623000000
H     2.089000000     1.049000000     1.125000000
C     1.468000000    -0.065000000    -0.596000000
C     2.879000000    -0.167000000    -1.151000000
O     3.116000000    -0.859000000    -2.178000000
O     3.775000000     0.489000000    -0.733000000
O     3.144000000    -3.469000000    -2.814000000
H     4.095000000    -3.573000000    -2.856000000
H     3.015000000    -2.555000000    -2.559000000
O     3.416000000     4.950000000     2.266000000
H     3.725000000     4.344000000     1.592000000
H     3.298000000     4.403000000     3.043000000
O    -3.499000000     3.367000000     0.292000000
H    -2.830000000     2.767000000    -0.038000000
H    -3.617000000     4.004000000    -0.413000000
O    -5.128000000     1.453000000    -2.570000000
H    -5.726000000     2.077000000    -2.159000000
H    -5.147000000     1.680000000    -3.500000000
O    -2.066000000    -3.574000000     0.722000000
H    -1.418000000    -2.893000000     0.898000000
H    -1.734000000    -4.027000000    -0.053000000
O     2.379000000     0.416000000    -4.629000000
H     2.703000000     0.414000000    -3.728000000
H     2.225000000     1.340000000    -4.826000000
O    -6.939000000     0.109000000    -0.620000000
H    -7.076000000    -0.273000000    -1.487000000
H    -6.423000000     0.898000000    -0.785000000
O     2.383000000     3.277000000    -2.005000000
H     1.682000000     3.740000000    -1.546000000
H     1.944000000     2.538000000    -2.428000000
O    -1.767000000    -0.957000000     3.736000000
H    -1.023000000    -0.508000000     4.137000000
H    -1.385000000    -1.455000000     3.013000000
O     5.623000000    -1.852000000    -2.474000000
H     6.007000000    -2.066000000    -1.624000000
H     4.855000000    -1.322000000    -2.262000000
O    -5.824000000    -2.386000000     0.252000000
H    -5.170000000    -2.660000000     0.895000000
H    -6.013000000    -1.475000000     0.475000000
O    -6.474000000     2.593000000     3.946000000
H    -5.551000000     2.697000000     3.717000000
H    -6.505000000     2.747000000     4.891000000
O    -1.311000000     5.171000000     2.675000000
H    -1.410000000     4.221000000     2.738000000
H    -0.720000000     5.399000000     3.393000000
O     3.830000000     2.846000000     0.385000000
H     3.634000000     1.981000000     0.024000000
H     3.394000000     3.457000000    -0.208000000
O     1.194000000     0.133000000     4.295000000
H     2.134000000     0.062000000     4.131000000
H     1.101000000     0.931000000     4.815000000
O    -2.942000000    -3.930000000     3.095000000
H    -3.880000000    -3.798000000     2.958000000
H    -2.548000000    -3.754000000     2.241000000
O    -4.968000000    -1.079000000    -4.432000000
H    -4.247000000    -0.457000000    -4.532000000
H    -4.848000000    -1.445000000    -3.556000000
O     1.969000000    -5.437000000    -4.418000000
H     1.085000000    -5.228000000    -4.721000000
H     2.158000000    -4.772000000    -3.756000000
O    -2.624000000     3.714000000    -2.294000000
H    -2.096000000     2.988000000    -2.626000000
H    -2.158000000     4.500000000    -2.579000000
O    -0.801000000     1.752000000    -3.442000000
H    -0.730000000     1.340000000    -2.580000000
H    -1.163000000     1.067000000    -4.004000000
O    -4.879000000     1.183000000     1.240000000
H    -5.802000000     1.235000000     0.992000000
H    -4.469000000     1.924000000     0.795000000
O     0.992000000     2.420000000     5.833000000
H     1.224000000     3.023000000     5.127000000
H     0.621000000     2.981000000     6.515000000
O    -3.473000000    -3.936000000    -2.123000000
H    -3.467000000    -3.008000000    -1.886000000
H    -2.613000000    -4.257000000    -1.853000000
O     4.909000000     0.211000000    -5.794000000
H     5.054000000     0.870000000    -6.473000000
H     4.105000000     0.491000000    -5.356000000
O     5.090000000     0.323000000     1.802000000
H     4.703000000     0.307000000     0.927000000
H     5.631000000     1.112000000     1.811000000
O    -5.497000000    -3.157000000     3.171000000
H    -6.390000000    -3.026000000     2.851000000
H    -5.532000000    -2.898000000     4.092000000
O    -4.311000000    -1.245000000    -1.775000000
H    -5.040000000    -1.433000000    -1.185000000
H    -4.241000000    -0.291000000    -1.774000000
O    -4.168000000     4.093000000     3.147000000
H    -4.213000000     4.142000000     2.192000000
H    -3.353000000     3.624000000     3.325000000
O    -0.012000000    -2.240000000     1.626000000
H     0.862000000    -2.581000000     1.436000000
H     0.020000000    -1.328000000     1.338000000
O    -4.439000000    -0.085000000     3.781000000
H    -3.586000000    -0.433000000     3.522000000
H    -4.739000000     0.405000000     3.015000000
O     1.766000000    -1.981000000    -5.616000000
H     1.842000000    -1.166000000    -5.119000000
H     2.311000000    -2.605000000    -5.137000000
O     4.343000000     4.896000000    -2.606000000
H     3.651000000     4.256000000    -2.441000000
H     4.184000000     5.591000000    -1.967000000
O    -1.842000000     2.271000000     3.736000000
H    -1.646000000     2.230000000     4.672000000
H    -2.100000000     1.379000000     3.506000000
O     6.264000000     1.757000000    -1.602000000
H     5.456000000     1.255000000    -1.495000000
H     6.298000000     2.323000000    -0.831000000
O    -3.210000000    -2.447000000     5.553000000
H    -3.144000000    -2.736000000     4.643000000
H    -2.469000000    -1.852000000     5.669000000
O     5.285000000    -2.259000000    -5.198000000
H     5.388000000    -2.297000000    -4.248000000
H     5.052000000    -1.348000000    -5.377000000
O    -1.132000000    -2.566000000    -5.530000000
H    -0.208000000    -2.325000000    -5.591000000
H    -1.124000000    -3.498000000    -5.314000000
O     2.599000000    -3.040000000     1.302000000
H     3.532000000    -2.855000000     1.194000000
H     2.480000000    -3.906000000     0.912000000
O    -2.500000000     1.268000000     6.256000000
H    -2.801000000     1.318000000     7.163000000
H    -2.995000000     0.540000000     5.880000000
O    -1.047000000    -5.227000000    -1.100000000
H    -1.489000000    -5.976000000    -1.500000000
H    -0.181000000    -5.557000000    -0.864000000
O    -0.750000000    -5.069000000    -4.326000000
H    -0.522000000    -5.119000000    -3.398000000
H    -1.091000000    -5.938000000    -4.536000000
O     8.425000000     0.489000000    -0.986000000
H     8.964000000     1.228000000    -0.704000000
H     7.647000000     0.893000000    -1.371000000
O     7.136000000     2.425000000    -4.033000000
H     6.658000000     3.076000000    -4.546000000
H     6.528000000     2.171000000    -3.339000000
O     4.078000000    -1.001000000     4.300000000
H     4.554000000    -0.425000000     4.897000000
H     4.290000000    -0.670000000     3.427000000
O     0.485000000     4.873000000    -0.271000000
H     0.071000000     4.942000000     0.589000000
H     0.972000000     5.690000000    -0.369000000
O    -2.000000000    -0.327000000    -4.607000000
H    -1.643000000    -1.188000000    -4.824000000
H    -2.052000000     0.130000000    -5.446000000
O     2.068000000    -4.951000000    -0.610000000
H     2.486000000    -5.800000000    -0.755000000
H     2.541000000    -4.350000000    -1.186000000
O    -6.240000000    -1.362000000     5.456000000
H    -5.498000000    -0.997000000     4.974000000
H    -6.682000000    -0.599000000     5.829000000
