158
-3041.56563
C     1.432000000    -0.312000000     0.163000000
H     2.486000000    -0.576000000     0.193000000
C     0.651000000    -0.665000000    -0.926000000
H     1.040000000    -1.290000000    -1.726000000
C    -0.698000000    -0.242000000    -0.984000000
H    -1.269000000    -0.499000000    -1.819000000
C    -1.247000000     0.461000000     0.072000000
H    -2.303000000     0.719000000     0.073000000
C    -0.483000000     0.804000000     1.150000000
H    -0.944000000     1.247000000     2.029000000
C     0.870000000     0.346000000     1.220000000
C     1.733000000     0.590000000     2.483000000
O     2.732000000    -0.044000000     2.714000000
O     1.349000000     1.404000000     3.302000000
O     5.675000000     0.511000000     5.586000000
H     5.782000000    -0.440000000     5.613000000
H     4.983000000     0.693000000     6.221000000
O     1.417000000     6.203000000     3.204000000
H     1.762000000     5.350000000     3.468000000
H     2.185000000     6.688000000     2.901000000
O    -1.905000000    -0.983000000    -7.578000000
H    -2.029000000    -0.166000000    -7.094000000
H    -2.735000000    -1.119000000    -8.035000000
O     3.633000000     4.075000000     7.169000000
H     3.120000000     3.959000000     6.370000000
H     4.306000000     4.713000000     6.931000000
O     5.000000000    -0.207000000     0.781000000
H     4.541000000     0.589000000     0.512000000
H     4.475000000    -0.553000000     1.503000000
O     2.121000000     3.551000000     4.615000000
H     1.930000000     2.764000000     4.104000000
H     2.987000000     3.826000000     4.315000000
O    -5.578000000     2.105000000    -0.003000000
H    -5.065000000     2.201000000     0.799000000
H    -6.345000000     1.597000000     0.262000000
O     1.011000000     0.771000000    -6.688000000
H     0.148000000     0.489000000    -6.988000000
H     1.208000000     1.544000000    -7.217000000
O     1.705000000     0.351000000    -4.070000000
H     1.489000000     1.108000000    -3.525000000
H     1.177000000     0.466000000    -4.860000000
O    -0.490000000    -4.859000000    -5.801000000
H    -0.222000000    -4.194000000    -6.435000000
H    -0.674000000    -4.367000000    -5.000000000
O    -0.582000000     1.195000000     5.858000000
H     0.116000000     0.928000000     5.260000000
H    -1.104000000     0.404000000     5.986000000
O     6.402000000    -2.210000000     2.102000000
H     6.529000000    -1.502000000     1.470000000
H     7.170000000    -2.771000000     1.990000000
O     0.565000000     2.154000000    -1.679000000
H     0.413000000     1.328000000    -1.219000000
H     0.679000000     2.799000000    -0.981000000
O     4.472000000     0.649000000    -4.331000000
H     4.717000000     1.569000000    -4.234000000
H     3.542000000     0.623000000    -4.106000000
O     3.795000000     1.970000000    -0.001000000
H     3.940000000     2.704000000     0.597000000
H     2.843000000     1.879000000    -0.041000000
O     2.139000000     3.419000000     1.582000000
H     1.536000000     2.813000000     2.012000000
H     1.582000000     3.940000000     1.003000000
O     2.530000000    -0.494000000     5.411000000
H     2.477000000     0.379000000     5.800000000
H     2.773000000    -0.335000000     4.499000000
O     1.350000000    -4.750000000     0.115000000
H     0.738000000    -5.403000000     0.457000000
H     1.137000000    -3.949000000     0.594000000
O     4.910000000    -2.573000000    -0.602000000
H     5.233000000    -1.780000000    -0.174000000
H     4.891000000    -3.230000000     0.093000000
O    -3.294000000     3.128000000    -1.305000000
H    -2.740000000     3.544000000    -0.644000000
H    -4.088000000     2.880000000    -0.830000000
O     0.660000000     3.580000000     6.912000000
H    -0.042000000     2.939000000     6.799000000
H     0.908000000     3.823000000     6.020000000
O     4.457000000    -4.026000000    -4.330000000
H     3.683000000    -3.856000000    -3.793000000
H     5.043000000    -3.292000000    -4.144000000
O     4.696000000     1.816000000     3.359000000
H     4.063000000     1.127000000     3.156000000
H     5.185000000     1.478000000     4.109000000
O    -4.612000000    -2.174000000    -4.781000000
H    -4.048000000    -2.898000000    -4.509000000
H    -4.439000000    -1.482000000    -4.144000000
O     0.046000000    -1.644000000     6.644000000
H     0.777000000    -1.136000000     6.293000000
H     0.043000000    -1.443000000     7.580000000
O    -2.449000000     4.221000000     1.035000000
H    -3.262000000     3.969000000     1.472000000
H    -1.998000000     4.777000000     1.671000000
O     2.938000000    -3.540000000    -2.380000000
H     3.590000000    -3.158000000    -1.793000000
H     2.455000000    -4.160000000    -1.833000000
O    -3.033000000    -1.487000000     3.329000000
H    -3.984000000    -1.582000000     3.390000000
H    -2.774000000    -2.104000000     2.644000000
O    -4.502000000     3.152000000     2.452000000
H    -5.388000000     2.893000000     2.704000000
H    -3.941000000     2.463000000     2.808000000
O    -3.270000000    -3.960000000    -2.680000000
H    -3.807000000    -3.571000000    -1.990000000
H    -3.546000000    -4.876000000    -2.711000000
O     6.580000000     0.862000000    -2.085000000
H     7.003000000     0.120000000    -2.517000000
H     5.657000000     0.786000000    -2.328000000
O    -4.577000000    -0.194000000    -2.693000000
H    -3.953000000     0.527000000    -2.780000000
H    -5.433000000     0.214000000    -2.828000000
O     0.602000000    -2.291000000    -4.296000000
H     1.441000000    -1.832000000    -4.250000000
H     0.465000000    -2.627000000    -3.410000000
O    -3.265000000     1.482000000     4.353000000
H    -3.326000000     0.557000000     4.113000000
H    -2.334000000     1.689000000     4.274000000
O     4.496000000     4.594000000     3.475000000
H     4.636000000     3.647000000     3.452000000
H     4.117000000     4.801000000     2.621000000
O     5.579000000    -1.847000000    -3.258000000
H     5.359000000    -2.161000000    -2.381000000
H     5.051000000    -1.057000000    -3.370000000
O    -1.657000000     2.245000000    -3.320000000
H    -0.946000000     2.086000000    -2.699000000
H    -2.350000000     2.642000000    -2.793000000
O     2.954000000    -2.659000000     2.835000000
H     2.715000000    -1.736000000     2.748000000
H     3.823000000    -2.645000000     3.235000000
O     0.055000000    -3.419000000     2.734000000
H    -0.023000000    -3.889000000     3.564000000
H     0.874000000    -2.930000000     2.811000000
O    -1.451000000    -3.683000000     0.285000000
H    -1.081000000    -3.422000000     1.128000000
H    -2.366000000    -3.406000000     0.328000000
O     6.554000000     2.120000000     1.506000000
H     5.951000000     2.206000000     2.244000000
H     6.204000000     1.390000000     0.995000000
O    -1.985000000     1.262000000    -5.903000000
H    -1.617000000     1.653000000    -5.111000000
H    -2.865000000     1.633000000    -5.966000000
O     3.183000000    -2.771000000     7.184000000
H     2.779000000    -2.173000000     6.555000000
H     2.744000000    -3.608000000     7.035000000
O     0.458000000    -6.519000000    -3.351000000
H     0.512000000    -6.270000000    -4.274000000
H     0.101000000    -5.745000000    -2.915000000
O     0.240000000     4.654000000     0.140000000
H     0.433000000     5.335000000    -0.504000000
H    -0.694000000     4.477000000     0.028000000
O     2.260000000    -4.598000000     4.584000000
H     2.421000000    -5.471000000     4.224000000
H     2.445000000    -4.002000000     3.858000000
O    -4.885000000    -2.942000000    -0.797000000
H    -5.290000000    -2.883000000     0.068000000
H    -5.141000000    -2.132000000    -1.238000000
O    -0.576000000    -4.402000000    -2.127000000
H    -0.736000000    -4.153000000    -1.216000000
H    -1.274000000    -3.969000000    -2.619000000
