158
-3052.22602
C     1.304000000    -0.717000000    -0.145000000
H     2.103000000    -1.420000000    -0.368000000
C     0.042000000    -1.268000000    -0.510000000
H    -0.076000000    -2.152000000    -1.131000000
C    -1.104000000    -0.530000000    -0.219000000
H    -2.059000000    -0.900000000    -0.458000000
C    -0.962000000     0.745000000     0.374000000
H    -1.843000000     1.294000000     0.696000000
C     0.286000000     1.235000000     0.661000000
H     0.374000000     2.235000000     1.079000000
C     1.452000000     0.520000000     0.462000000
C     2.830000000     1.136000000     0.717000000
O     3.755000000     0.567000000     0.175000000
O     2.938000000     2.098000000     1.407000000
O     7.607000000     0.223000000     1.129000000
H     6.718000000     0.486000000     1.369000000
H     7.531000000    -0.080000000     0.224000000
O     6.359000000     5.747000000     2.508000000
H     6.094000000     4.856000000     2.736000000
H     6.994000000     5.988000000     3.182000000
O     4.981000000     0.194000000    -2.146000000
H     5.008000000     1.036000000    -2.600000000
H     4.538000000     0.382000000    -1.318000000
O     3.885000000     6.627000000     2.652000000
H     3.547000000     5.947000000     2.069000000
H     4.789000000     6.367000000     2.825000000
O    -2.210000000     2.741000000    -2.153000000
H    -2.665000000     3.333000000    -1.554000000
H    -2.742000000     1.945000000    -2.153000000
O    -3.140000000    -3.259000000     1.577000000
H    -3.673000000    -3.793000000     2.166000000
H    -2.533000000    -2.797000000     2.155000000
O    -0.175000000     5.531000000    -0.119000000
H     0.222000000     6.401000000    -0.105000000
H    -0.042000000     5.220000000    -1.014000000
O     2.207000000     0.956000000     3.671000000
H     2.563000000     1.515000000     2.980000000
H     1.278000000     0.872000000     3.456000000
O     7.853000000     0.075000000    -1.735000000
H     6.911000000    -0.096000000    -1.765000000
H     8.255000000    -0.748000000    -2.013000000
O    -7.389000000    -1.498000000     0.425000000
H    -7.504000000    -2.254000000     0.999000000
H    -7.330000000    -0.751000000     1.021000000
O     5.947000000     3.198000000     3.653000000
H     5.488000000     2.943000000     4.453000000
H     6.872000000     3.207000000     3.900000000
O     2.506000000     2.359000000    -4.120000000
H     1.872000000     2.374000000    -3.403000000
H     3.358000000     2.389000000    -3.686000000
O     4.873000000     2.805000000    -2.792000000
H     5.824000000     2.862000000    -2.700000000
H     4.547000000     3.630000000    -2.434000000
O     4.446000000     5.164000000    -1.272000000
H     4.210000000     4.725000000    -0.454000000
H     4.113000000     6.055000000    -1.170000000
O     2.769000000     4.607000000     1.159000000
H     2.989000000     3.677000000     1.214000000
H     1.923000000     4.627000000     0.714000000
O     4.978000000     0.675000000     3.254000000
H     5.320000000     1.515000000     2.947000000
H     4.054000000     0.687000000     3.006000000
O     1.974000000    -4.904000000    -1.447000000
H     1.304000000    -5.538000000    -1.191000000
H     2.212000000    -4.464000000    -0.631000000
O     4.830000000    -2.582000000    -3.168000000
H     5.285000000    -1.747000000    -3.272000000
H     5.165000000    -2.937000000    -2.345000000
O    -1.460000000     3.065000000    -4.849000000
H    -0.947000000     2.809000000    -5.617000000
H    -1.502000000     2.272000000    -4.315000000
O     1.893000000     4.419000000     4.209000000
H     2.080000000     4.024000000     3.357000000
H     1.881000000     3.681000000     4.818000000
O    -4.578000000    -0.856000000     1.898000000
H    -4.224000000    -1.674000000     1.549000000
H    -4.212000000    -0.794000000     2.780000000
O     5.608000000     2.602000000     0.499000000
H     5.000000000     1.968000000     0.118000000
H     5.095000000     3.051000000     1.171000000
O    -4.392000000    -2.060000000    -5.119000000
H    -5.021000000    -1.581000000    -4.579000000
H    -3.537000000    -1.810000000    -4.769000000
O    -4.249000000     0.416000000    -1.227000000
H    -4.529000000     0.292000000    -0.321000000
H    -4.554000000    -0.368000000    -1.683000000
O    -1.612000000     4.356000000     1.684000000
H    -1.001000000     4.247000000     2.413000000
H    -1.098000000     4.792000000     1.004000000
O     2.651000000    -3.690000000    -4.160000000
H     3.433000000    -3.230000000    -3.856000000
H     2.256000000    -4.044000000    -3.362000000
O    -1.305000000    -1.515000000     2.682000000
H    -0.409000000    -1.784000000     2.884000000
H    -1.236000000    -1.060000000     1.843000000
O    -1.452000000    -0.460000000     5.298000000
H    -1.037000000    -1.137000000     5.833000000
H    -1.304000000    -0.744000000     4.396000000
O     0.056000000     4.908000000    -2.676000000
H    -0.662000000     4.275000000    -2.669000000
H     0.372000000     4.902000000    -3.580000000
O    -3.521000000     4.512000000    -0.203000000
H    -3.193000000     5.299000000    -0.640000000
H    -2.917000000     4.375000000     0.527000000
O    -6.310000000    -1.326000000    -3.309000000
H    -7.200000000    -0.983000000    -3.390000000
H    -6.425000000    -2.212000000    -2.964000000
O     0.268000000    -2.576000000    -4.991000000
H     0.521000000    -1.668000000    -4.822000000
H     1.034000000    -3.090000000    -4.736000000
O    -0.377000000     2.793000000     3.661000000
H    -1.293000000     2.569000000     3.825000000
H    -0.122000000     3.328000000     4.413000000
O     7.050000000     4.072000000    -1.257000000
H     6.886000000     3.613000000    -0.434000000
H     6.231000000     4.532000000    -1.442000000
O    -1.914000000     0.214000000    -3.974000000
H    -1.095000000     0.184000000    -4.468000000
H    -2.032000000    -0.680000000    -3.653000000
O    -6.491000000    -3.628000000    -1.758000000
H    -6.875000000    -3.635000000    -0.881000000
H    -5.565000000    -3.824000000    -1.615000000
O     5.158000000    -1.861000000     1.138000000
H     5.046000000    -0.984000000     0.769000000
H     5.789000000    -2.286000000     0.557000000
O     3.167000000    -3.736000000     0.826000000
H     3.674000000    -4.461000000     1.193000000
H     3.798000000    -3.022000000     0.739000000
O     1.453000000    -2.579000000     2.839000000
H     1.998000000    -2.887000000     2.115000000
H     2.079000000    -2.296000000     3.506000000
O    -5.881000000     3.662000000     1.671000000
H    -6.332000000     4.422000000     2.037000000
H    -5.147000000     4.032000000     1.181000000
O    -2.233000000    -5.411000000    -2.773000000
H    -2.125000000    -5.317000000    -3.719000000
H    -2.109000000    -6.346000000    -2.610000000
O     5.343000000    -2.063000000     3.700000000
H     5.271000000    -1.112000000     3.783000000
H     5.142000000    -2.239000000     2.782000000
O     0.712000000     6.525000000     2.632000000
H     0.970000000     5.664000000     2.960000000
H     1.478000000     7.079000000     2.785000000
O     0.451000000     1.499000000    -2.421000000
H    -0.499000000     1.528000000    -2.313000000
H     0.749000000     0.878000000    -1.756000000
O    -3.859000000    -3.931000000    -1.142000000
H    -3.349000000    -3.845000000    -0.336000000
H    -3.298000000    -4.439000000    -1.728000000
O    -4.631000000     1.142000000    -3.999000000
H    -3.780000000     0.745000000    -4.185000000
H    -4.701000000     1.122000000    -3.044000000
O    -2.278000000    -2.323000000    -2.913000000
H    -2.880000000    -2.680000000    -2.260000000
H    -1.606000000    -2.998000000    -3.014000000
O    -6.716000000     1.063000000     1.876000000
H    -6.554000000     1.988000000     2.061000000
H    -5.852000000     0.654000000     1.924000000
