158
-3041.66373
C     1.012000000    -1.109000000     0.171000000
H     1.698000000    -1.943000000     0.299000000
C    -0.157000000    -1.201000000    -0.638000000
H    -0.439000000    -2.145000000    -1.099000000
C    -1.007000000    -0.077000000    -0.729000000
H    -1.979000000    -0.293000000    -1.230000000
C    -0.661000000     1.124000000    -0.128000000
H    -1.343000000     1.957000000    -0.286000000
C     0.455000000     1.189000000     0.662000000
H     0.569000000     2.179000000     1.095000000
C     1.275000000     0.107000000     0.879000000
C     2.558000000     0.284000000     1.753000000
O     3.449000000    -0.607000000     1.807000000
O     2.744000000     1.300000000     2.376000000
O     8.446000000    -1.080000000     2.903000000
H     7.659000000    -0.660000000     2.554000000
H     8.933000000    -1.357000000     2.127000000
O     6.366000000     1.981000000    -0.068000000
H     5.915000000     1.788000000    -0.890000000
H     7.295000000     1.869000000    -0.272000000
O    -3.163000000     3.077000000     1.125000000
H    -2.381000000     3.609000000     0.979000000
H    -3.805000000     3.420000000     0.504000000
O     0.728000000     2.873000000    -3.164000000
H     0.417000000     3.458000000    -2.473000000
H     0.889000000     3.449000000    -3.911000000
O     4.185000000    -0.602000000    -0.828000000
H     3.833000000     0.238000000    -1.123000000
H     3.906000000    -0.672000000     0.084000000
O    -0.098000000     4.849000000     4.465000000
H     0.265000000     4.900000000     3.581000000
H     0.215000000     4.011000000     4.805000000
O    -3.565000000    -1.187000000    -3.711000000
H    -3.961000000    -0.995000000    -2.861000000
H    -3.059000000    -0.402000000    -3.922000000
O    -7.178000000    -0.606000000    -3.676000000
H    -7.548000000     0.193000000    -4.052000000
H    -6.488000000    -0.296000000    -3.089000000
O     0.555000000    -0.497000000    -4.092000000
H    -0.327000000    -0.160000000    -4.252000000
H     0.775000000    -0.186000000    -3.214000000
O    -4.034000000    -1.364000000     0.058000000
H    -3.702000000    -2.146000000    -0.383000000
H    -4.560000000    -1.703000000     0.782000000
O     7.119000000    -1.025000000    -1.221000000
H     7.142000000    -1.735000000    -1.863000000
H     6.188000000    -0.904000000    -1.031000000
O     1.696000000     4.753000000     2.201000000
H     2.249000000     5.532000000     2.137000000
H     2.117000000     4.113000000     1.627000000
O     3.289000000     4.478000000     4.635000000
H     3.933000000     4.780000000     3.994000000
H     2.463000000     4.455000000     4.152000000
O     6.062000000     0.165000000     1.880000000
H     5.123000000    -0.020000000     1.875000000
H     6.163000000     0.908000000     1.285000000
O    -4.007000000    -3.009000000    -5.595000000
H    -4.652000000    -3.540000000    -5.127000000
H    -3.567000000    -2.507000000    -4.909000000
O     3.593000000    -4.412000000    -0.683000000
H     3.215000000    -4.171000000     0.163000000
H     3.674000000    -5.365000000    -0.647000000
O     2.405000000    -4.141000000    -3.082000000
H     2.901000000    -3.348000000    -3.284000000
H     2.641000000    -4.347000000    -2.178000000
O    -1.614000000     0.554000000     4.649000000
H    -2.114000000     0.132000000     3.950000000
H    -2.220000000     0.587000000     5.390000000
O    -4.606000000     4.235000000    -1.519000000
H    -5.203000000     4.446000000    -0.801000000
H    -4.272000000     5.084000000    -1.810000000
O    -5.530000000     0.901000000    -1.789000000
H    -4.966000000     1.596000000    -1.448000000
H    -5.771000000     0.388000000    -1.018000000
O    -6.085000000    -3.709000000    -1.369000000
H    -5.197000000    -3.801000000    -1.024000000
H    -6.651000000    -3.987000000    -0.649000000
O     0.490000000     1.945000000     4.141000000
H    -0.362000000     1.522000000     4.029000000
H     1.061000000     1.503000000     3.512000000
O    -2.487000000     5.343000000     3.421000000
H    -1.711000000     5.265000000     3.976000000
H    -2.179000000     5.116000000     2.544000000
O     1.346000000    -1.287000000     4.587000000
H     0.695000000    -0.591000000     4.498000000
H     1.245000000    -1.596000000     5.488000000
O    -3.501000000     0.438000000     2.354000000
H    -3.602000000    -0.132000000     1.592000000
H    -3.224000000     1.279000000     1.990000000
O     3.122000000    -4.123000000     4.898000000
H     3.345000000    -3.212000000     5.090000000
H     3.946000000    -4.515000000     4.610000000
O     0.304000000     4.871000000    -1.134000000
H     1.205000000     5.033000000    -0.854000000
H     0.058000000     5.660000000    -1.617000000
O     3.863000000    -2.043000000    -3.423000000
H     4.447000000    -1.596000000    -4.036000000
H     4.000000000    -1.592000000    -2.590000000
O    -1.692000000    -3.006000000     1.417000000
H    -1.477000000    -2.358000000     0.746000000
H    -0.843000000    -3.327000000     1.721000000
O     4.213000000     1.618000000     5.058000000
H     3.937000000     2.509000000     5.273000000
H     3.761000000     1.418000000     4.238000000
O    -5.282000000    -2.085000000     2.494000000
H    -4.612000000    -1.832000000     3.128000000
H    -5.988000000    -2.454000000     3.025000000
O     4.239000000     3.260000000     1.442000000
H     4.808000000     2.683000000     0.932000000
H     3.795000000     2.675000000     2.057000000
O     0.627000000     2.603000000     6.759000000
H    -0.243000000     2.588000000     7.157000000
H     0.489000000     2.280000000     5.868000000
O    -0.067000000    -6.371000000     1.361000000
H     0.573000000    -6.984000000     1.723000000
H     0.077000000    -5.560000000     1.847000000
O    -1.105000000     4.864000000     1.093000000
H    -0.804000000     4.724000000     0.195000000
H    -0.302000000     4.890000000     1.613000000
O     5.667000000    -3.771000000     3.227000000
H     6.420000000    -3.330000000     2.833000000
H     5.887000000    -4.702000000     3.188000000
O     3.252000000    -3.243000000     2.157000000
H     3.299000000    -2.323000000     1.894000000
H     4.106000000    -3.424000000     2.550000000
O    -3.588000000    -4.112000000    -0.335000000
H    -2.944000000    -3.743000000     0.271000000
H    -3.523000000    -5.058000000    -0.205000000
O     3.609000000     4.693000000    -0.926000000
H     3.644000000     5.649000000    -0.912000000
H     3.900000000     4.429000000    -0.053000000
O    -1.637000000     0.989000000    -3.983000000
H    -2.022000000     1.261000000    -4.816000000
H    -1.007000000     1.679000000    -3.774000000
O     6.723000000     1.040000000     4.405000000
H     5.825000000     1.065000000     4.735000000
H     6.644000000     0.672000000     3.525000000
O     0.392000000    -3.690000000    -4.749000000
H     1.153000000    -3.843000000    -4.189000000
H     0.263000000    -2.742000000    -4.724000000
O    -6.687000000    -0.217000000     0.843000000
H    -7.379000000    -0.733000000     1.257000000
H    -5.880000000    -0.527000000     1.253000000
O     2.982000000     1.787000000    -1.489000000
H     3.276000000     2.658000000    -1.223000000
H     2.406000000     1.947000000    -2.236000000
O     0.685000000    -4.014000000     2.383000000
H     1.634000000    -3.908000000     2.445000000
H     0.369000000    -3.865000000     3.274000000
O     4.195000000    -1.246000000     4.902000000
H     4.842000000    -1.329000000     4.203000000
H     3.393000000    -0.973000000     4.456000000
O    -2.790000000     2.626000000    -5.871000000
H    -3.463000000     2.221000000    -6.418000000
H    -2.312000000     3.202000000    -6.467000000
O     0.072000000    -5.521000000    -1.168000000
H     0.171000000    -4.576000000    -1.053000000
H     0.217000000    -5.885000000    -0.295000000
