158
-3012.59367
C     1.430000000    -0.379000000     0.019000000
H     2.422000000    -0.824000000    -0.018000000
C     0.472000000    -0.864000000    -0.843000000
H     0.701000000    -1.703000000    -1.494000000
C    -0.824000000    -0.269000000    -0.847000000
H    -1.664000000    -0.645000000    -1.352000000
C    -1.153000000     0.656000000     0.083000000
H    -2.151000000     1.086000000     0.097000000
C    -0.214000000     1.107000000     1.014000000
H    -0.559000000     1.757000000     1.814000000
C     1.116000000     0.581000000     0.991000000
C     2.040000000     0.879000000     2.129000000
O     2.876000000     0.013000000     2.338000000
O     1.829000000     1.737000000     2.921000000
O     5.549000000     3.643000000     1.553000000
H     6.031000000     4.155000000     0.904000000
H     5.600000000     2.742000000     1.233000000
O    -2.894000000     4.436000000     0.357000000
H    -2.238000000     5.002000000    -0.049000000
H    -3.314000000     4.990000000     1.015000000
O    -0.554000000     3.885000000    -2.373000000
H     0.067000000     4.589000000    -2.187000000
H    -1.345000000     4.335000000    -2.670000000
O     5.043000000     0.855000000     0.920000000
H     4.378000000     1.284000000     0.382000000
H     4.547000000     0.263000000     1.486000000
O     0.603000000     5.232000000     3.454000000
H     1.333000000     4.922000000     2.918000000
H     0.163000000     4.433000000     3.745000000
O    -3.687000000    -1.052000000    -2.932000000
H    -3.494000000    -0.137000000    -2.726000000
H    -3.535000000    -1.520000000    -2.111000000
O    -6.210000000    -0.926000000    -1.357000000
H    -5.565000000    -1.558000000    -1.039000000
H    -6.204000000    -0.227000000    -0.703000000
O     1.199000000     1.520000000    -2.681000000
H     0.445000000     2.106000000    -2.612000000
H     1.184000000     1.013000000    -1.870000000
O    -3.714000000    -2.578000000     2.629000000
H    -2.812000000    -2.260000000     2.667000000
H    -4.145000000    -2.168000000     3.379000000
O     7.087000000    -0.531000000    -0.762000000
H     6.369000000    -0.028000000    -0.378000000
H     6.674000000    -1.048000000    -1.454000000
O     3.170000000     6.772000000     1.276000000
H     4.013000000     6.889000000     0.837000000
H     3.036000000     5.824000000     1.287000000
O     3.389000000     6.281000000     4.339000000
H     4.239000000     6.492000000     3.953000000
H     2.985000000     5.679000000     3.715000000
O     4.009000000     1.549000000     4.734000000
H     3.321000000     2.022000000     4.267000000
H     3.940000000     0.649000000     4.416000000
O    -3.621000000    -2.358000000    -5.339000000
H    -4.501000000    -2.714000000    -5.225000000
H    -3.448000000    -1.882000000    -4.527000000
O    -6.452000000     0.369000000    -3.885000000
H    -5.646000000     0.777000000    -4.200000000
H    -6.180000000    -0.143000000    -3.123000000
O     3.476000000    -4.144000000    -0.363000000
H     3.199000000    -3.549000000     0.333000000
H     3.549000000    -4.997000000     0.065000000
O     4.900000000    -2.366000000    -1.825000000
H     4.289000000    -1.961000000    -2.442000000
H     4.424000000    -3.120000000    -1.478000000
O    -3.528000000     0.748000000    -6.935000000
H    -4.251000000     0.627000000    -7.551000000
H    -3.804000000     0.278000000    -6.148000000
O    -2.314000000     1.786000000     3.616000000
H    -3.000000000     1.998000000     2.984000000
H    -2.319000000     0.830000000     3.663000000
O    -5.179000000     3.719000000    -1.158000000
H    -4.729000000     4.267000000    -0.514000000
H    -4.506000000     3.113000000    -1.467000000
O    -4.289000000    -2.887000000    -0.202000000
H    -3.974000000    -2.712000000     0.685000000
H    -4.429000000    -3.834000000    -0.224000000
O     0.030000000     2.758000000     4.361000000
H    -0.780000000     2.484000000     3.931000000
H     0.723000000     2.325000000     3.863000000
O     1.139000000    -0.583000000     4.647000000
H     1.708000000    -0.430000000     3.893000000
H     1.285000000     0.174000000     5.214000000
O     2.976000000    -1.167000000    -5.385000000
H     2.873000000    -0.858000000    -4.485000000
H     3.283000000    -2.069000000    -5.295000000
O    -2.072000000    -0.994000000     5.173000000
H    -1.744000000    -0.630000000     5.995000000
H    -1.296000000    -1.353000000     4.743000000
O    -4.338000000     2.394000000     1.419000000
H    -4.696000000     1.896000000     0.684000000
H    -3.769000000     3.047000000     1.011000000
O     2.822000000    -5.731000000    -3.974000000
H     2.331000000    -5.432000000    -4.739000000
H     2.355000000    -5.355000000    -3.228000000
O     3.212000000    -0.268000000    -2.886000000
H     3.970000000     0.316000000    -2.918000000
H     2.472000000     0.310000000    -2.698000000
O    -0.998000000    -3.418000000    -5.394000000
H    -0.661000000    -2.582000000    -5.073000000
H    -1.942000000    -3.281000000    -5.473000000
O    -1.094000000    -1.708000000     2.207000000
H    -0.615000000    -1.066000000     1.682000000
H    -0.965000000    -2.537000000     1.748000000
O     4.339000000     2.014000000     7.584000000
H     4.189000000     1.194000000     8.055000000
H     4.323000000     1.766000000     6.660000000
O    -5.647000000     2.839000000     3.617000000
H    -6.461000000     2.857000000     3.115000000
H    -4.988000000     2.533000000     2.994000000
O     2.999000000     4.117000000     2.523000000
H     3.938000000     3.937000000     2.562000000
H     2.591000000     3.252000000     2.483000000
O     1.457000000     2.006000000     6.617000000
H     2.158000000     2.542000000     6.988000000
H     0.970000000     2.606000000     6.052000000
O    -0.663000000    -6.336000000    -2.882000000
H    -0.062000000    -5.592000000    -2.915000000
H    -1.439000000    -6.039000000    -3.356000000
O     5.559000000    -3.411000000     3.418000000
H     5.110000000    -4.245000000     3.279000000
H     6.490000000    -3.630000000     3.372000000
O     3.409000000    -2.462000000     1.585000000
H     3.073000000    -1.612000000     1.868000000
H     4.026000000    -2.717000000     2.272000000
O    -0.801000000    -4.259000000    -0.380000000
H    -0.725000000    -5.050000000     0.154000000
H    -1.484000000    -4.466000000    -1.017000000
O     5.347000000     1.892000000    -2.375000000
H     4.766000000     2.107000000    -1.644000000
H     5.712000000     2.735000000    -2.645000000
O    -3.326000000     2.046000000    -2.843000000
H    -3.836000000     2.283000000    -3.618000000
H    -2.570000000     2.632000000    -2.865000000
O     6.797000000     1.509000000     4.856000000
H     6.567000000     0.580000000     4.860000000
H     5.975000000     1.959000000     4.663000000
O     0.126000000    -1.228000000    -4.378000000
H     0.122000000    -0.360000000    -3.976000000
H     1.049000000    -1.405000000    -4.557000000
O    -6.867000000     0.901000000     0.530000000
H    -7.098000000     1.803000000     0.750000000
H    -6.520000000     0.537000000     1.345000000
O     3.550000000     2.466000000    -0.417000000
H     3.668000000     3.236000000     0.139000000
H     2.828000000     2.701000000    -1.000000000
O     0.709000000    -3.223000000     4.377000000
H     1.450000000    -3.676000000     3.974000000
H     0.922000000    -2.293000000     4.294000000
O     5.261000000    -1.224000000     5.189000000
H     5.381000000    -1.975000000     4.608000000
H     4.660000000    -1.538000000     5.865000000
O    -4.816000000     2.602000000    -5.206000000
H    -4.068000000     2.282000000    -5.710000000
H    -5.137000000     3.353000000    -5.705000000
O     1.485000000    -4.519000000    -1.985000000
H     0.772000000    -4.246000000    -1.408000000
H     2.269000000    -4.465000000    -1.440000000
