158
-3017.85777
C     1.189000000    -0.634000000    -0.696000000
H     1.996000000    -1.194000000    -1.163000000
C    -0.057000000    -1.236000000    -0.437000000
H    -0.193000000    -2.295000000    -0.640000000
C    -1.060000000    -0.573000000     0.177000000
H    -1.938000000    -1.139000000     0.545000000
C    -0.850000000     0.699000000     0.601000000
H    -1.686000000     1.140000000     1.138000000
C     0.299000000     1.386000000     0.269000000
H     0.345000000     2.460000000     0.428000000
C     1.323000000     0.725000000    -0.397000000
C     2.670000000     1.485000000    -0.570000000
O     3.514000000     1.069000000    -1.293000000
O     2.803000000     2.526000000    -0.013000000
O    -3.628000000     6.265000000     1.494000000
H    -3.188000000     5.509000000     1.104000000
H    -4.017000000     6.725000000     0.750000000
O     1.118000000     3.641000000    -2.708000000
H     0.411000000     4.229000000    -2.446000000
H     0.754000000     2.763000000    -2.596000000
O     5.062000000     2.922000000    -2.051000000
H     5.731000000     2.839000000    -1.371000000
H     4.332000000     2.390000000    -1.734000000
O     2.889000000     2.429000000    -5.269000000
H     2.437000000     2.864000000    -4.547000000
H     3.685000000     2.074000000    -4.874000000
O    -0.881000000     5.518000000    -0.216000000
H    -0.061000000     5.224000000     0.182000000
H    -0.646000000     6.318000000    -0.685000000
O    -6.952000000    -2.722000000     0.525000000
H    -6.393000000    -3.488000000     0.648000000
H    -6.859000000    -2.503000000    -0.402000000
O    -4.773000000    -0.668000000    -1.349000000
H    -5.410000000     0.017000000    -1.552000000
H    -4.746000000    -0.694000000    -0.392000000
O    -4.469000000    -0.900000000     1.635000000
H    -5.140000000    -0.741000000     2.298000000
H    -3.965000000    -1.638000000     1.977000000
O     6.840000000     0.386000000    -3.992000000
H     5.909000000     0.384000000    -3.772000000
H     6.990000000     1.242000000    -4.393000000
O     4.935000000     4.855000000     3.713000000
H     4.181000000     4.679000000     4.276000000
H     4.588000000     5.409000000     3.014000000
O     0.276000000     2.579000000     4.405000000
H    -0.264000000     1.806000000     4.571000000
H     1.158000000     2.232000000     4.274000000
O     1.617000000     4.775000000     0.532000000
H     1.835000000     3.879000000     0.274000000
H     2.306000000     5.311000000     0.139000000
O    -0.508000000    -1.513000000    -4.009000000
H    -0.866000000    -2.055000000    -4.712000000
H     0.129000000    -2.078000000    -3.571000000
O     2.111000000     7.835000000     0.107000000
H     2.815000000     8.413000000    -0.187000000
H     2.181000000     7.065000000    -0.456000000
O    -3.632000000     3.436000000     2.734000000
H    -3.033000000     4.175000000     2.634000000
H    -3.256000000     2.917000000     3.446000000
O    -2.133000000    -2.374000000     4.124000000
H    -2.032000000    -3.173000000     4.641000000
H    -2.589000000    -2.658000000     3.331000000
O    -2.476000000     2.649000000    -2.984000000
H    -1.997000000     3.426000000    -3.274000000
H    -1.905000000     1.917000000    -3.215000000
O     4.412000000    -2.596000000    -2.188000000
H     4.158000000    -2.870000000    -1.306000000
H     4.955000000    -3.313000000    -2.514000000
O    -2.634000000    -5.559000000    -3.065000000
H    -1.820000000    -5.660000000    -3.558000000
H    -2.716000000    -4.615000000    -2.928000000
O    -3.133000000    -2.768000000    -2.597000000
H    -2.423000000    -2.142000000    -2.738000000
H    -3.710000000    -2.338000000    -1.966000000
O     1.936000000     4.843000000     3.453000000
H     1.684000000     4.889000000     2.530000000
H     1.340000000     4.199000000     3.833000000
O    -0.399000000    -0.413000000     4.349000000
H     0.244000000    -0.501000000     3.645000000
H    -1.047000000    -1.093000000     4.168000000
O     1.599000000    -3.194000000    -3.278000000
H     1.575000000    -3.967000000    -3.842000000
H     2.519000000    -3.109000000    -3.027000000
O    -5.316000000    -5.271000000     0.589000000
H    -5.500000000    -6.001000000    -0.002000000
H    -5.064000000    -5.688000000     1.413000000
O    -0.236000000     1.141000000    -3.021000000
H    -0.255000000     0.270000000    -3.418000000
H    -0.118000000     0.976000000    -2.086000000
O    -5.194000000     1.593000000     0.592000000
H    -4.941000000     0.798000000     1.060000000
H    -4.457000000     2.191000000     0.720000000
O    -2.656000000    -6.453000000    -0.207000000
H    -2.708000000    -5.622000000     0.264000000
H    -2.626000000    -6.203000000    -1.131000000
O     5.628000000    -0.028000000     0.135000000
H     5.289000000     0.435000000     0.901000000
H     5.039000000     0.223000000    -0.577000000
O     3.074000000     5.860000000    -1.866000000
H     2.885000000     5.101000000    -2.419000000
H     3.243000000     6.571000000    -2.484000000
O     4.209000000    -0.268000000    -3.568000000
H     4.114000000     0.283000000    -2.792000000
H     4.311000000    -1.155000000    -3.222000000
O     6.109000000     0.417000000     3.449000000
H     5.523000000     1.007000000     2.975000000
H     6.239000000     0.839000000     4.298000000
O     3.757000000    -3.736000000     0.729000000
H     4.484000000    -3.709000000     1.351000000
H     3.089000000    -4.267000000     1.164000000
O     3.499000000    -1.305000000    -5.969000000
H     2.560000000    -1.450000000    -6.087000000
H     3.587000000    -1.039000000    -5.054000000
O     4.947000000     7.068000000     1.511000000
H     5.357000000     7.657000000     0.877000000
H     4.669000000     6.313000000     0.991000000
O    -3.890000000    -3.349000000     2.656000000
H    -3.966000000    -3.841000000     1.839000000
H    -4.498000000    -3.783000000     3.255000000
O     2.514000000     0.872000000     3.501000000
H     1.962000000     0.285000000     2.984000000
H     3.156000000     1.210000000     2.876000000
O    -3.472000000     4.193000000    -0.620000000
H    -2.591000000     4.551000000    -0.516000000
H    -3.492000000     3.862000000    -1.518000000
O    -3.462000000     1.014000000     4.536000000
H    -4.388000000     0.992000000     4.777000000
H    -3.301000000     0.162000000     4.130000000
O     7.278000000     1.981000000    -0.647000000
H     7.031000000     1.083000000    -0.425000000
H     8.094000000     1.890000000    -1.139000000
O     7.163000000    -2.354000000    -0.208000000
H     6.845000000    -1.487000000     0.044000000
H     7.468000000    -2.245000000    -1.108000000
O    -0.356000000    -4.784000000     0.900000000
H     0.001000000    -4.886000000     1.782000000
H    -0.541000000    -5.677000000     0.612000000
O    -5.722000000    -1.243000000    -3.920000000
H    -6.219000000    -2.006000000    -3.626000000
H    -5.085000000    -1.089000000    -3.222000000
O     4.544000000     4.577000000     0.368000000
H     4.637000000     4.641000000    -0.583000000
H     4.116000000     3.733000000     0.510000000
O    -5.785000000     2.637000000    -1.847000000
H    -6.686000000     2.341000000    -1.980000000
H    -5.528000000     2.252000000    -1.009000000
O     5.778000000     3.210000000    -4.654000000
H     6.720000000     3.374000000    -4.635000000
H     5.546000000     3.036000000    -3.742000000
O     1.267000000    -1.235000000     2.327000000
H     1.416000000    -2.143000000     2.592000000
H     0.762000000    -1.303000000     1.516000000
O     4.288000000     2.131000000     2.143000000
H     3.616000000     2.440000000     1.536000000
H     4.687000000     2.930000000     2.486000000
O     1.458000000    -3.745000000     3.332000000
H     2.104000000    -3.289000000     3.871000000
H     1.789000000    -4.641000000     3.268000000
