158
-3049.29681
C     1.086000000    -0.492000000    -0.839000000
H     1.817000000    -1.012000000    -1.452000000
C    -0.162000000    -1.113000000    -0.662000000
H    -0.414000000    -2.063000000    -1.127000000
C    -1.136000000    -0.522000000     0.185000000
H    -2.037000000    -1.056000000     0.259000000
C    -0.850000000     0.704000000     0.712000000
H    -1.590000000     1.238000000     1.303000000
C     0.441000000     1.317000000     0.552000000
H     0.695000000     2.249000000     1.051000000
C     1.467000000     0.742000000    -0.218000000
C     2.880000000     1.302000000    -0.319000000
O     3.665000000     0.679000000    -1.068000000
O     3.101000000     2.432000000     0.112000000
O    -0.240000000     3.844000000    -2.715000000
H     0.341000000     3.898000000    -1.956000000
H     0.078000000     4.526000000    -3.307000000
O     3.881000000     2.954000000    -2.820000000
H     3.331000000     3.375000000    -2.159000000
H     4.043000000     2.077000000    -2.474000000
O     1.914000000     2.773000000    -4.844000000
H     1.404000000     2.070000000    -4.442000000
H     2.561000000     3.010000000    -4.179000000
O    -5.717000000    -2.447000000    -2.156000000
H    -5.894000000    -3.205000000    -1.599000000
H    -4.765000000    -2.441000000    -2.256000000
O    -4.496000000    -0.178000000    -1.078000000
H    -4.468000000     0.154000000    -0.180000000
H    -5.258000000    -0.757000000    -1.094000000
O    -3.484000000    -0.962000000     3.674000000
H    -4.113000000    -0.962000000     4.396000000
H    -3.443000000    -1.876000000     3.393000000
O     6.371000000     3.462000000    -4.052000000
H     5.424000000     3.359000000    -3.963000000
H     6.654000000     3.813000000    -3.208000000
O     4.554000000     5.339000000     3.075000000
H     3.857000000     5.975000000     2.915000000
H     5.297000000     5.665000000     2.567000000
O     2.550000000    -5.749000000    -3.319000000
H     2.074000000    -4.921000000    -3.258000000
H     2.507000000    -5.982000000    -4.246000000
O     0.187000000     3.691000000     3.986000000
H    -0.403000000     2.940000000     3.923000000
H     1.038000000     3.310000000     4.204000000
O     1.516000000     4.319000000    -0.647000000
H     2.153000000     3.672000000    -0.343000000
H     1.923000000     5.164000000    -0.458000000
O    -1.129000000    -1.889000000    -3.784000000
H    -1.642000000    -1.429000000    -4.449000000
H    -0.663000000    -2.570000000    -4.269000000
O     6.499000000    -2.582000000    -1.307000000
H     6.509000000    -2.106000000    -0.476000000
H     7.349000000    -3.021000000    -1.341000000
O    -4.051000000     2.221000000     4.289000000
H    -4.083000000     2.898000000     4.965000000
H    -3.123000000     2.146000000     4.067000000
O    -7.618000000     0.421000000     1.155000000
H    -7.163000000     1.263000000     1.174000000
H    -7.739000000     0.193000000     2.077000000
O    -0.916000000    -3.779000000     2.335000000
H    -1.834000000    -4.052000000     2.333000000
H    -0.681000000    -3.723000000     1.408000000
O    -2.118000000     3.421000000    -0.924000000
H    -1.434000000     3.387000000    -1.593000000
H    -2.237000000     2.510000000    -0.656000000
O     4.023000000    -2.628000000    -2.241000000
H     3.582000000    -2.085000000    -1.587000000
H     4.938000000    -2.642000000    -1.962000000
O    -2.638000000    -5.290000000    -0.596000000
H    -1.714000000    -5.339000000    -0.351000000
H    -2.753000000    -4.397000000    -0.921000000
O    -3.000000000    -2.863000000    -1.873000000
H    -2.431000000    -2.595000000    -2.594000000
H    -3.136000000    -2.063000000    -1.366000000
O    -0.097000000     6.210000000     2.861000000
H    -0.813000000     5.935000000     2.289000000
H     0.285000000     5.391000000     3.177000000
O    -1.443000000     1.005000000     4.111000000
H    -0.773000000     0.574000000     3.580000000
H    -2.237000000     0.492000000     3.959000000
O    -2.835000000    -6.179000000     2.214000000
H    -2.784000000    -6.150000000     1.259000000
H    -2.024000000    -6.610000000     2.484000000
O     2.696000000    -1.125000000     4.213000000
H     2.806000000    -2.020000000     4.535000000
H     1.873000000    -1.145000000     3.726000000
O     0.355000000     0.699000000    -3.893000000
H     0.183000000     0.329000000    -3.027000000
H    -0.100000000     0.114000000    -4.498000000
O    -4.329000000     0.699000000     1.487000000
H    -4.266000000     0.285000000     2.347000000
H    -4.945000000     1.422000000     1.614000000
O     5.365000000     0.663000000     1.457000000
H     4.837000000     1.226000000     2.023000000
H     5.107000000     0.907000000     0.568000000
O     4.934000000     5.638000000    -2.238000000
H     5.052000000     5.179000000    -1.406000000
H     4.192000000     6.223000000    -2.085000000
O     4.972000000    -0.058000000    -3.186000000
H     4.553000000     0.113000000    -2.342000000
H     5.867000000    -0.313000000    -2.963000000
O     4.356000000    -3.330000000     1.585000000
H     5.302000000    -3.226000000     1.479000000
H     4.041000000    -2.451000000     1.796000000
O     4.268000000    -2.338000000    -5.038000000
H     4.044000000    -2.787000000    -4.223000000
H     4.615000000    -1.491000000    -4.757000000
O     7.367000000     2.853000000    -0.371000000
H     8.066000000     3.455000000    -0.626000000
H     7.566000000     2.042000000    -0.838000000
O    -3.788000000    -3.569000000     3.012000000
H    -3.940000000    -4.262000000     2.371000000
H    -4.332000000    -3.812000000     3.762000000
O     1.956000000     1.999000000     4.792000000
H     1.601000000     1.115000000     4.691000000
H     2.800000000     1.970000000     4.342000000
O    -1.724000000     6.277000000     0.252000000
H    -0.996000000     6.825000000    -0.043000000
H    -1.661000000     5.487000000    -0.285000000
O     7.472000000     1.183000000    -2.681000000
H     8.220000000     0.744000000    -3.087000000
H     7.203000000     1.841000000    -3.322000000
O     6.723000000    -1.756000000     1.175000000
H     6.294000000    -0.901000000     1.218000000
H     7.545000000    -1.636000000     1.649000000
O     0.048000000    -4.778000000    -0.092000000
H     0.903000000    -4.936000000     0.308000000
H     0.052000000    -5.312000000    -0.886000000
O    -4.431000000     1.318000000    -3.835000000
H    -4.300000000     0.935000000    -2.968000000
H    -5.279000000     1.759000000    -3.777000000
O     5.115000000     4.378000000     0.304000000
H     5.834000000     3.803000000     0.041000000
H     4.367000000     3.791000000     0.412000000
O    -5.585000000    -4.891000000    -0.691000000
H    -4.838000000    -5.422000000    -0.413000000
H    -6.235000000    -5.528000000    -0.986000000
O    -4.982000000     4.068000000    -0.512000000
H    -5.239000000     3.958000000     0.403000000
H    -4.130000000     3.638000000    -0.576000000
O     5.638000000     1.029000000    -5.815000000
H     4.790000000     0.682000000    -6.091000000
H     5.547000000     1.161000000    -4.871000000
O     0.239000000    -1.401000000     2.788000000
H    -0.160000000    -2.260000000     2.652000000
H     0.191000000    -0.977000000     1.931000000
O    -5.868000000    -1.695000000     0.956000000
H    -6.469000000    -1.058000000     1.343000000
H    -5.077000000    -1.633000000     1.490000000
O     3.992000000     2.701000000     2.658000000
H     3.675000000     2.678000000     1.755000000
H     4.173000000     3.626000000     2.825000000
O     2.587000000    -5.130000000     0.770000000
H     2.837000000    -5.592000000     1.570000000
H     3.068000000    -4.303000000     0.812000000
O    -0.099000000    -4.785000000    -4.328000000
H     0.023000000    -5.302000000    -5.124000000
H    -0.970000000    -5.028000000    -4.015000000
