158
-3013.80244
C    -0.895000000    -1.032000000     0.641000000
H    -1.682000000    -1.703000000     0.976000000
C    -0.380000000    -1.066000000    -0.676000000
H    -0.599000000    -1.912000000    -1.323000000
C     0.469000000    -0.114000000    -1.146000000
H     0.951000000    -0.177000000    -2.103000000
C     0.776000000     1.044000000    -0.333000000
H     1.470000000     1.732000000    -0.809000000
C     0.273000000     1.128000000     0.985000000
H     0.534000000     1.988000000     1.596000000
C    -0.571000000     0.074000000     1.465000000
C    -1.188000000     0.199000000     2.865000000
O    -0.796000000     1.113000000     3.645000000
O    -1.927000000    -0.677000000     3.229000000
O     3.013000000    -1.889000000     4.635000000
H     2.400000000    -1.154000000     4.652000000
H     3.594000000    -1.700000000     3.898000000
O     2.040000000     0.841000000     4.599000000
H     1.109000000     0.880000000     4.380000000
H     2.404000000     1.651000000     4.243000000
O     1.361000000    -3.122000000    -7.239000000
H     1.251000000    -2.938000000    -6.306000000
H     1.469000000    -2.260000000    -7.642000000
O     4.736000000    -0.406000000    -1.867000000
H     5.666000000    -0.215000000    -1.746000000
H     4.313000000     0.453000000    -1.872000000
O     0.385000000    -2.568000000     5.960000000
H     1.235000000    -2.847000000     6.299000000
H     0.341000000    -2.948000000     5.082000000
O    -0.501000000     2.057000000    -6.774000000
H    -0.775000000     2.753000000    -7.370000000
H     0.445000000     1.986000000    -6.907000000
O    -2.487000000     0.899000000    -1.346000000
H    -1.806000000     0.582000000    -0.753000000
H    -2.152000000     1.734000000    -1.671000000
O     0.855000000    -3.353000000    -2.946000000
H     0.961000000    -2.469000000    -3.297000000
H     0.313000000    -3.805000000    -3.592000000
O     5.032000000    -3.339000000    -2.120000000
H     5.125000000    -2.525000000    -2.614000000
H     5.488000000    -3.172000000    -1.295000000
O     4.798000000     2.412000000    -5.166000000
H     4.447000000     1.547000000    -5.377000000
H     4.286000000     3.016000000    -5.705000000
O     4.382000000    -0.699000000     2.721000000
H     3.724000000    -0.673000000     2.027000000
H     4.766000000     0.178000000     2.721000000
O     1.116000000     5.284000000    -2.109000000
H     1.685000000     4.899000000    -1.442000000
H     0.926000000     4.562000000    -2.708000000
O    -1.136000000    -4.367000000    -4.322000000
H    -1.944000000    -4.759000000    -4.653000000
H    -0.759000000    -5.039000000    -3.754000000
O    -2.086000000    -5.934000000     1.734000000
H    -2.828000000    -5.394000000     1.461000000
H    -1.385000000    -5.701000000     1.126000000
O     2.317000000     3.855000000     0.017000000
H     1.419000000     3.760000000     0.332000000
H     2.734000000     4.437000000     0.652000000
O     2.667000000     5.538000000     2.441000000
H     2.686000000     6.233000000     3.098000000
H     1.799000000     5.608000000     2.043000000
O    -1.953000000    -4.150000000    -1.438000000
H    -2.142000000    -3.888000000    -2.339000000
H    -1.721000000    -5.076000000    -1.501000000
O    -0.469000000     1.550000000     6.833000000
H    -0.037000000     1.821000000     6.023000000
H    -0.915000000     0.734000000     6.606000000
O    -5.399000000     0.826000000    -0.024000000
H    -4.607000000     1.080000000    -0.497000000
H    -6.101000000     1.313000000    -0.455000000
O    -0.106000000     5.224000000     1.399000000
H    -0.590000000     5.657000000     0.696000000
H    -0.777000000     4.765000000     1.904000000
O     5.368000000     1.713000000     1.366000000
H     5.571000000     1.530000000     0.448000000
H     6.050000000     2.323000000     1.645000000
O    -2.499000000    -3.296000000     3.094000000
H    -2.388000000    -2.359000000     3.258000000
H    -3.308000000    -3.356000000     2.586000000
O     2.549000000    -4.108000000    -1.100000000
H     1.946000000    -4.106000000    -1.844000000
H     3.165000000    -3.400000000    -1.291000000
O    -2.602000000     3.663000000     5.302000000
H    -1.670000000     3.819000000     5.146000000
H    -2.773000000     4.067000000     6.153000000
O    -2.643000000    -0.554000000     5.991000000
H    -2.013000000    -0.508000000     5.272000000
H    -3.137000000     0.263000000     5.929000000
O     0.317000000    -4.421000000     0.595000000
H    -0.344000000    -4.105000000    -0.020000000
H     1.151000000    -4.143000000     0.215000000
O     0.082000000     3.876000000     4.688000000
H    -0.391000000     4.555000000     4.208000000
H     0.070000000     3.117000000     4.104000000
O     0.634000000     0.460000000    -4.903000000
H     0.342000000    -0.452000000    -4.895000000
H    -0.006000000     0.912000000    -5.453000000
O    -0.034000000    -4.121000000     3.400000000
H    -0.937000000    -3.851000000     3.232000000
H     0.364000000    -4.177000000     2.531000000
O     3.705000000     2.225000000    -1.860000000
H     3.348000000     2.549000000    -2.687000000
H     3.347000000     2.814000000    -1.197000000
O    -4.360000000    -4.275000000     5.116000000
H    -4.465000000    -3.332000000     4.991000000
H    -3.469000000    -4.459000000     4.817000000
O    -4.497000000    -0.614000000     3.017000000
H    -3.546000000    -0.586000000     2.914000000
H    -4.676000000    -0.030000000     3.754000000
O     2.675000000     0.406000000     7.333000000
H     2.460000000     0.430000000     6.400000000
H     1.890000000     0.049000000     7.750000000
O    -0.289000000    -2.146000000    -5.319000000
H    -0.716000000    -2.964000000    -5.064000000
H    -0.757000000    -1.869000000    -6.108000000
O    -4.007000000    -1.350000000    -2.015000000
H    -3.946000000    -1.930000000    -1.257000000
H    -3.386000000    -0.646000000    -1.829000000
O     2.353000000     3.758000000    -5.439000000
H     1.811000000     4.524000000    -5.632000000
H     2.061000000     3.470000000    -4.575000000
O     0.754000000     2.848000000    -3.646000000
H     0.883000000     1.978000000    -4.025000000
H    -0.136000000     3.091000000    -3.902000000
O     3.043000000    -1.078000000    -5.336000000
H     2.968000000    -1.940000000    -4.925000000
H     2.147000000    -0.744000000    -5.358000000
O    -3.756000000    -4.061000000     0.406000000
H    -4.271000000    -3.260000000     0.315000000
H    -3.182000000    -4.066000000    -0.360000000
O    -1.904000000     3.148000000     2.150000000
H    -2.822000000     3.261000000     2.396000000
H    -1.555000000     2.537000000     2.800000000
O     3.176000000    -1.187000000     0.326000000
H     2.411000000    -0.728000000    -0.021000000
H     3.856000000    -1.051000000    -0.333000000
O     6.192000000     2.891000000    -2.840000000
H     5.739000000     2.891000000    -3.684000000
H     5.630000000     2.369000000    -2.267000000
O    -4.213000000     1.633000000     4.640000000
H    -3.396000000     2.130000000     4.587000000
H    -4.881000000     2.237000000     4.315000000
O     3.429000000    -4.089000000    -4.486000000
H     3.060000000    -4.922000000    -4.781000000
H     3.995000000    -4.325000000    -3.751000000
O    -2.095000000     2.860000000    -3.489000000
H    -2.593000000     3.316000000    -2.811000000
H    -2.762000000     2.450000000    -4.041000000
O    -2.831000000    -2.846000000     7.298000000
H    -2.878000000    -2.020000000     6.817000000
H    -3.705000000    -2.954000000     7.674000000
O    -4.836000000    -1.725000000     0.566000000
H    -5.360000000    -0.954000000     0.349000000
H    -4.468000000    -1.530000000     1.428000000
O     3.338000000     2.901000000     2.957000000
H     4.079000000     2.465000000     2.536000000
H     3.321000000     3.775000000     2.568000000
