158
-3055.25732
C     1.322000000     0.112000000    -0.701000000
H     2.280000000    -0.006000000    -1.202000000
C     0.582000000    -1.025000000    -0.576000000
H     0.844000000    -1.972000000    -1.040000000
C    -0.568000000    -1.019000000     0.223000000
H    -1.178000000    -1.890000000     0.390000000
C    -0.939000000     0.140000000     0.809000000
H    -1.879000000     0.116000000     1.356000000
C    -0.255000000     1.318000000     0.664000000
H    -0.567000000     2.289000000     1.039000000
C     0.852000000     1.295000000    -0.146000000
C     1.635000000     2.594000000    -0.379000000
O     2.423000000     2.615000000    -1.330000000
O     1.228000000     3.611000000     0.163000000
O    -1.054000000     3.481000000    -2.087000000
H    -0.196000000     3.459000000    -1.664000000
H    -1.447000000     2.634000000    -1.876000000
O     2.436000000     4.401000000    -3.354000000
H     2.827000000     5.274000000    -3.338000000
H     2.581000000     4.058000000    -2.472000000
O     0.209000000    -1.601000000    -4.825000000
H    -0.358000000    -2.250000000    -4.411000000
H     1.096000000    -1.930000000    -4.680000000
O     1.345000000     4.700000000    -5.875000000
H     1.838000000     4.379000000    -5.119000000
H     0.506000000     4.982000000    -5.511000000
O    -1.308000000    -7.747000000    -0.651000000
H    -2.040000000    -7.656000000    -1.261000000
H    -1.712000000    -8.035000000     0.167000000
O    -5.554000000    -3.632000000    -4.506000000
H    -5.336000000    -4.339000000    -5.114000000
H    -5.112000000    -3.873000000    -3.691000000
O    -3.531000000     2.063000000     0.662000000
H    -4.474000000     1.904000000     0.698000000
H    -3.259000000     1.697000000    -0.179000000
O     5.054000000     3.270000000    -3.928000000
H     4.254000000     3.772000000    -3.774000000
H     5.044000000     2.591000000    -3.253000000
O     1.375000000     5.950000000     3.611000000
H     0.434000000     5.861000000     3.760000000
H     1.472000000     6.803000000     3.189000000
O    -0.188000000    -3.870000000    -3.318000000
H     0.708000000    -3.714000000    -3.018000000
H    -0.106000000    -4.575000000    -3.960000000
O     0.020000000     1.193000000     3.696000000
H     0.623000000     1.661000000     3.119000000
H    -0.350000000     0.502000000     3.147000000
O    -0.921000000     5.005000000     1.185000000
H    -0.274000000     4.372000000     0.871000000
H    -1.053000000     5.598000000     0.445000000
O    -1.934000000    -0.030000000    -4.574000000
H    -2.616000000    -0.518000000    -5.037000000
H    -1.156000000    -0.583000000    -4.644000000
O    -0.808000000     6.991000000    -0.652000000
H    -1.296000000     7.631000000    -0.133000000
H    -1.137000000     7.104000000    -1.543000000
O     3.634000000    -3.836000000    -0.389000000
H     4.395000000    -4.340000000    -0.101000000
H     3.177000000    -3.608000000     0.421000000
O    -4.756000000     1.162000000     3.708000000
H    -5.123000000     1.716000000     4.397000000
H    -4.032000000     0.701000000     4.132000000
O    -5.040000000    -5.343000000     3.576000000
H    -4.264000000    -5.407000000     4.134000000
H    -4.785000000    -5.774000000     2.760000000
O    -3.355000000     5.696000000    -1.553000000
H    -3.082000000     6.566000000    -1.843000000
H    -2.616000000     5.128000000    -1.770000000
O     2.427000000    -3.281000000    -2.763000000
H     2.699000000    -2.421000000    -3.084000000
H     3.018000000    -3.461000000    -2.031000000
O    -0.978000000    -6.801000000     2.957000000
H    -1.339000000    -6.836000000     3.843000000
H    -0.112000000    -6.408000000     3.066000000
O    -1.808000000    -4.264000000    -0.848000000
H    -1.117000000    -4.232000000    -0.186000000
H    -1.363000000    -4.048000000    -1.668000000
O    -2.076000000    -3.894000000     2.863000000
H    -2.316000000    -4.761000000     3.192000000
H    -2.912000000    -3.473000000     2.665000000
O    -2.111000000     1.045000000    -2.170000000
H    -1.644000000     0.492000000    -1.543000000
H    -2.220000000     0.491000000    -2.942000000
O    -4.219000000    -2.313000000     2.765000000
H    -5.104000000    -2.676000000     2.765000000
H    -4.158000000    -1.831000000     3.590000000
O     1.100000000    -6.172000000    -0.622000000
H     0.966000000    -5.283000000    -0.291000000
H     0.333000000    -6.658000000    -0.319000000
O     4.525000000     4.291000000     0.412000000
H     3.902000000     5.004000000     0.554000000
H     4.081000000     3.704000000    -0.201000000
O     3.626000000     6.998000000    -2.929000000
H     4.408000000     7.410000000    -3.298000000
H     3.729000000     7.094000000    -1.982000000
O     4.508000000     1.151000000    -2.052000000
H     3.674000000     1.508000000    -1.746000000
H     4.808000000     0.596000000    -1.332000000
O    -3.949000000    -4.740000000    -2.391000000
H    -3.179000000    -4.837000000    -1.832000000
H    -3.611000000    -4.826000000    -3.283000000
O     2.618000000    -2.870000000     2.344000000
H     2.742000000    -1.936000000     2.513000000
H     3.435000000    -3.276000000     2.633000000
O    -1.010000000    -1.491000000     3.601000000
H    -1.295000000    -2.011000000     2.849000000
H    -0.881000000    -2.132000000     4.300000000
O     3.379000000    -0.256000000     2.588000000
H     4.227000000    -0.454000000     2.985000000
H     3.477000000     0.632000000     2.245000000
O    -2.563000000     3.756000000     2.947000000
H    -1.961000000     4.330000000     2.473000000
H    -2.758000000     3.051000000     2.329000000
O     5.418000000    -1.440000000    -1.607000000
H     6.325000000    -1.487000000    -1.306000000
H     4.951000000    -2.072000000    -1.060000000
O     4.669000000     2.507000000     2.644000000
H     3.719000000     2.584000000     2.733000000
H     4.919000000     3.249000000     2.093000000
O    -3.405000000    -6.145000000     0.951000000
H    -3.357000000    -5.420000000     0.328000000
H    -2.571000000    -6.114000000     1.420000000
O    -1.342000000     6.022000000     4.257000000
H    -1.995000000     5.342000000     4.091000000
H    -1.843000000     6.837000000     4.265000000
O     2.317000000     5.964000000     0.340000000
H     1.863000000     6.792000000     0.183000000
H     1.798000000     5.313000000    -0.132000000
O     1.590000000     1.548000000    -4.179000000
H     1.132000000     1.926000000    -4.929000000
H     1.504000000     2.206000000    -3.489000000
O    -1.148000000     4.930000000    -4.529000000
H    -1.322000000     4.111000000    -4.992000000
H    -0.887000000     4.658000000    -3.650000000
O     3.218000000    -0.682000000    -3.770000000
H     2.677000000     0.025000000    -4.122000000
H     3.822000000    -0.246000000    -3.170000000
O    -6.016000000     0.921000000     1.394000000
H    -6.647000000     1.624000000     1.552000000
H    -5.559000000     0.818000000     2.229000000
O    -2.817000000    -0.248000000     5.001000000
H    -2.200000000    -0.567000000     4.342000000
H    -2.725000000    -0.860000000     5.732000000
O     1.735000000     3.092000000     2.667000000
H     1.696000000     3.141000000     1.712000000
H     1.634000000     3.999000000     2.958000000
O     0.344000000    -4.290000000     1.207000000
H    -0.386000000    -4.287000000     1.826000000
H     0.892000000    -3.554000000     1.479000000
O     1.145000000    -3.195000000     4.665000000
H     1.348000000    -2.481000000     4.060000000
H     1.426000000    -3.986000000     4.204000000
O     6.244000000    -1.367000000    -4.300000000
H     5.931000000    -1.199000000    -3.411000000
H     5.508000000    -1.798000000    -4.735000000
O    -0.861000000     3.171000000     5.747000000
H    -1.807000000     3.191000000     5.893000000
H    -0.763000000     2.828000000     4.859000000
