158
-3025.28853
C    -0.024000000     1.242000000     0.685000000
H     0.112000000     2.219000000     1.141000000
C     1.101000000     0.676000000     0.107000000
H     2.052000000     1.201000000     0.150000000
C     0.983000000    -0.507000000    -0.471000000
H     1.810000000    -0.915000000    -0.981000000
C    -0.246000000    -1.184000000    -0.537000000
H    -0.209000000    -2.201000000    -0.919000000
C    -1.356000000    -0.649000000     0.033000000
H    -2.345000000    -1.096000000    -0.032000000
C    -1.297000000     0.608000000     0.598000000
C    -2.532000000     1.285000000     1.188000000
O    -2.492000000     2.486000000     1.443000000
O    -3.551000000     0.655000000     1.330000000
O     0.914000000    -3.825000000    -3.224000000
H     0.944000000    -4.781000000    -3.192000000
H     1.704000000    -3.545000000    -2.762000000
O    -4.548000000     4.141000000     1.921000000
H    -4.947000000     3.876000000     2.750000000
H    -3.741000000     3.629000000     1.869000000
O     1.904000000    -3.974000000     2.778000000
H     1.524000000    -3.117000000     2.969000000
H     2.583000000    -3.795000000     2.128000000
O     1.322000000     1.282000000     4.091000000
H     1.128000000     0.656000000     3.393000000
H     0.463000000     1.582000000     4.389000000
O    -1.171000000     5.375000000     0.534000000
H    -1.858000000     5.712000000    -0.042000000
H    -0.688000000     4.752000000    -0.009000000
O     3.337000000    -4.883000000     0.028000000
H     4.018000000    -5.266000000    -0.525000000
H     2.539000000    -5.351000000    -0.215000000
O    -2.526000000     3.342000000    -1.218000000
H    -2.975000000     4.170000000    -1.046000000
H    -2.405000000     2.951000000    -0.353000000
O    -6.271000000    -0.465000000    -2.308000000
H    -6.042000000     0.419000000    -2.595000000
H    -5.874000000    -0.546000000    -1.441000000
O    -6.159000000    -2.852000000     1.855000000
H    -5.696000000    -2.547000000     2.635000000
H    -6.420000000    -3.748000000     2.066000000
O    -2.531000000     3.775000000    -3.979000000
H    -2.473000000     3.991000000    -3.048000000
H    -2.865000000     2.878000000    -3.997000000
O    -2.676000000    -6.674000000    -0.140000000
H    -2.417000000    -6.098000000     0.579000000
H    -2.613000000    -6.126000000    -0.922000000
O     6.141000000    -0.682000000    -3.982000000
H     6.776000000     0.016000000    -4.139000000
H     5.363000000    -0.229000000    -3.655000000
O    -3.109000000    -0.189000000     3.830000000
H    -2.330000000     0.317000000     4.061000000
H    -3.338000000     0.112000000     2.950000000
O     4.757000000     4.268000000    -1.574000000
H     5.551000000     4.153000000    -2.096000000
H     4.200000000     4.835000000    -2.108000000
O     1.728000000     4.510000000     5.318000000
H     1.540000000     4.979000000     4.505000000
H     1.623000000     3.586000000     5.092000000
O    -7.122000000     1.273000000     4.049000000
H    -6.295000000     1.333000000     4.528000000
H    -6.884000000     1.447000000     3.138000000
O     4.138000000     1.780000000    -2.469000000
H     4.623000000     1.980000000    -3.271000000
H     4.021000000     2.629000000    -2.043000000
O     6.553000000    -3.378000000    -2.828000000
H     6.475000000    -2.459000000    -3.085000000
H     5.972000000    -3.845000000    -3.429000000
O     3.851000000     1.924000000     4.946000000
H     2.945000000     1.695000000     4.738000000
H     4.357000000     1.151000000     4.696000000
O     2.136000000     6.487000000     3.198000000
H     2.566000000     6.006000000     2.491000000
H     2.726000000     7.217000000     3.385000000
O     4.708000000    -0.416000000    -0.760000000
H     4.392000000     0.370000000    -1.205000000
H     5.587000000    -0.186000000    -0.460000000
O    -3.239000000     5.935000000    -1.199000000
H    -3.982000000     6.302000000    -0.720000000
H    -3.130000000     6.515000000    -1.953000000
O     2.647000000     5.465000000    -2.717000000
H     2.008000000     4.813000000    -2.429000000
H     2.120000000     6.230000000    -2.949000000
O    -5.851000000     1.843000000     1.491000000
H    -5.326000000     1.093000000     1.212000000
H    -5.279000000     2.599000000     1.355000000
O    -4.856000000    -1.126000000    -0.048000000
H    -4.402000000    -0.635000000     0.637000000
H    -5.258000000    -1.863000000     0.412000000
O    -5.564000000     6.323000000     0.562000000
H    -5.106000000     5.641000000     1.054000000
H    -6.259000000     5.856000000     0.097000000
O    -3.057000000    -4.624000000    -1.997000000
H    -2.886000000    -4.841000000    -2.914000000
H    -2.664000000    -3.759000000    -1.878000000
O    -3.178000000     1.290000000    -3.025000000
H    -2.691000000     1.911000000    -2.483000000
H    -4.098000000     1.492000000    -2.854000000
O     2.230000000     1.405000000    -5.622000000
H     2.400000000     1.048000000    -4.750000000
H     2.422000000     0.682000000    -6.219000000
O    -1.305000000     1.672000000     4.608000000
H    -1.684000000     1.883000000     5.462000000
H    -1.605000000     2.376000000     4.033000000
O    -5.808000000    -4.775000000    -1.303000000
H    -4.894000000    -5.056000000    -1.356000000
H    -5.830000000    -4.169000000    -0.562000000
O    -2.651000000    -2.726000000     4.082000000
H    -3.545000000    -3.025000000     4.250000000
H    -2.741000000    -1.790000000     3.903000000
O     0.594000000     3.746000000    -2.354000000
H     0.587000000     2.792000000    -2.428000000
H     0.196000000     4.053000000    -3.169000000
O    -2.110000000    -5.213000000     1.886000000
H    -1.514000000    -5.808000000     2.341000000
H    -2.061000000    -4.397000000     2.384000000
O    -1.345000000     6.425000000     5.272000000
H    -1.668000000     5.800000000     4.623000000
H    -0.394000000     6.408000000     5.168000000
O     1.788000000    -1.114000000    -4.151000000
H     2.096000000    -1.185000000    -5.054000000
H     1.483000000    -1.995000000    -3.932000000
O    -1.770000000     4.366000000     3.108000000
H    -1.361000000     4.698000000     2.309000000
H    -2.706000000     4.525000000     2.982000000
O     5.340000000    -3.779000000     1.824000000
H     6.151000000    -4.274000000     1.936000000
H     4.996000000    -4.071000000     0.980000000
O     2.979000000    -2.767000000    -1.951000000
H     3.339000000    -1.894000000    -1.796000000
H     3.383000000    -3.316000000    -1.280000000
O     5.002000000     2.431000000     1.845000000
H     5.744000000     1.828000000     1.813000000
H     4.265000000     1.889000000     2.128000000
O     0.680000000     1.123000000    -2.742000000
H     0.462000000     0.836000000    -1.855000000
H     0.930000000     0.320000000    -3.199000000
O     4.017000000     5.304000000     1.560000000
H     3.910000000     4.360000000     1.440000000
H     3.886000000     5.673000000     0.687000000
O     3.732000000    -1.369000000     1.713000000
H     4.496000000    -1.931000000     1.843000000
H     3.755000000    -1.146000000     0.783000000
O    -2.861000000    -1.502000000    -3.076000000
H    -2.885000000    -0.546000000    -3.120000000
H    -3.740000000    -1.751000000    -2.792000000
O    -5.692000000     2.340000000    -2.311000000
H    -6.083000000     2.875000000    -1.620000000
H    -6.212000000     2.539000000    -3.090000000
O    -5.424000000     3.677000000     4.584000000
H    -6.187000000     3.570000000     5.152000000
H    -4.908000000     4.365000000     5.002000000
O     2.611000000    -4.014000000    -6.463000000
H     2.248000000    -4.880000000    -6.652000000
H     2.381000000    -3.853000000    -5.548000000
O     1.091000000    -1.302000000     2.857000000
H     0.404000000    -1.169000000     2.205000000
H     1.904000000    -1.100000000     2.393000000
