158
-3043.66686
C    -0.185000000     1.497000000     0.045000000
H    -0.208000000     2.584000000     0.047000000
C     0.646000000     0.791000000    -0.848000000
H     1.144000000     1.352000000    -1.635000000
C     0.774000000    -0.582000000    -0.772000000
H     1.370000000    -1.117000000    -1.538000000
C     0.207000000    -1.212000000     0.273000000
H     0.244000000    -2.288000000     0.417000000
C    -0.629000000    -0.525000000     1.169000000
H    -1.094000000    -1.061000000     1.993000000
C    -0.917000000     0.846000000     0.984000000
C    -1.895000000     1.549000000     1.807000000
O    -2.516000000     2.563000000     1.512000000
O    -2.264000000     1.050000000     2.844000000
O     0.610000000    -4.432000000    -4.555000000
H    -0.199000000    -3.953000000    -4.377000000
H     1.092000000    -4.403000000    -3.728000000
O    -3.539000000     5.100000000     1.710000000
H    -3.940000000     5.190000000     2.575000000
H    -3.200000000     4.205000000     1.696000000
O    -0.166000000    -3.069000000     3.192000000
H     0.037000000    -4.002000000     3.114000000
H    -1.033000000    -3.046000000     3.596000000
O     1.206000000     2.085000000     6.249000000
H     0.839000000     1.916000000     5.382000000
H     0.550000000     1.747000000     6.858000000
O    -1.273000000     6.442000000     0.465000000
H    -1.843000000     6.759000000    -0.235000000
H    -1.783000000     5.757000000     0.898000000
O     3.063000000    -4.657000000    -0.438000000
H     2.761000000    -4.363000000     0.422000000
H     4.009000000    -4.759000000    -0.337000000
O    -3.003000000     3.247000000    -1.150000000
H    -2.125000000     3.483000000    -1.449000000
H    -2.871000000     2.908000000    -0.264000000
O    -2.446000000     2.070000000    -5.484000000
H    -1.897000000     1.561000000    -4.887000000
H    -2.033000000     1.962000000    -6.341000000
O    -6.645000000     3.674000000     0.615000000
H    -6.673000000     3.985000000     1.520000000
H    -7.254000000     4.245000000     0.147000000
O     3.891000000    -0.647000000    -5.692000000
H     4.350000000     0.152000000    -5.431000000
H     3.788000000    -0.565000000    -6.640000000
O    -2.872000000    -3.204000000     1.130000000
H    -3.415000000    -3.990000000     1.177000000
H    -3.007000000    -2.769000000     1.972000000
O    -2.260000000    -2.624000000    -1.557000000
H    -2.093000000    -1.717000000    -1.816000000
H    -2.141000000    -2.628000000    -0.607000000
O    -5.998000000    -1.418000000     2.048000000
H    -5.694000000    -0.930000000     1.282000000
H    -6.369000000    -0.751000000     2.625000000
O     4.755000000    -1.976000000    -0.483000000
H     4.597000000    -1.077000000    -0.772000000
H     4.050000000    -2.156000000     0.139000000
O    -1.128000000     0.260000000     5.130000000
H    -1.796000000     0.559000000     5.746000000
H    -1.425000000     0.583000000     4.279000000
O     4.255000000     3.998000000    -0.634000000
H     4.675000000     3.602000000    -1.397000000
H     3.419000000     4.328000000    -0.965000000
O    -0.761000000     3.777000000     3.884000000
H    -0.455000000     4.661000000     4.090000000
H    -0.122000000     3.444000000     3.254000000
O     1.130000000    -1.839000000     5.932000000
H     0.751000000    -0.964000000     5.842000000
H     0.982000000    -2.252000000     5.081000000
O     3.906000000     0.551000000    -1.709000000
H     4.667000000     0.676000000    -2.276000000
H     3.171000000     0.455000000    -2.314000000
O     6.445000000    -2.489000000    -2.843000000
H     5.939000000    -2.649000000    -2.047000000
H     5.931000000    -2.898000000    -3.539000000
O     3.569000000     0.277000000     1.130000000
H     3.070000000     0.368000000     0.318000000
H     4.445000000     0.017000000     0.844000000
O    -3.169000000     1.201000000     6.857000000
H    -3.926000000     0.733000000     7.208000000
H    -3.529000000     1.755000000     6.165000000
O    -1.843000000    -5.949000000    -1.710000000
H    -0.998000000    -6.391000000    -1.783000000
H    -1.621000000    -5.025000000    -1.594000000
O     1.956000000     5.253000000    -2.077000000
H     1.304000000     4.552000000    -2.078000000
H     1.460000000     6.041000000    -2.302000000
O    -4.137000000    -0.306000000     3.944000000
H    -4.482000000    -0.915000000     3.290000000
H    -3.408000000     0.131000000     3.503000000
O    -5.309000000     1.443000000     1.204000000
H    -4.507000000     1.753000000     1.623000000
H    -5.818000000     2.238000000     1.044000000
O    -4.316000000     6.560000000    -0.536000000
H    -3.962000000     5.965000000     0.124000000
H    -4.628000000     5.984000000    -1.235000000
O    -1.661000000    -3.151000000    -4.278000000
H    -2.134000000    -2.474000000    -4.762000000
H    -1.950000000    -3.043000000    -3.372000000
O    -2.352000000    -0.113000000    -2.514000000
H    -1.725000000    -0.267000000    -3.221000000
H    -2.072000000     0.713000000    -2.121000000
O     1.457000000     4.346000000    -5.214000000
H     0.705000000     4.746000000    -5.653000000
H     1.212000000     3.427000000    -5.109000000
O    -2.482000000    -2.864000000     4.758000000
H    -3.406000000    -3.026000000     4.568000000
H    -2.428000000    -1.919000000     4.899000000
O    -6.504000000     0.740000000     4.988000000
H    -5.677000000     0.289000000     4.819000000
H    -7.176000000     0.125000000     4.693000000
O    -0.482000000     3.394000000    -2.670000000
H    -0.123000000     2.739000000    -3.268000000
H    -1.025000000     3.954000000    -3.225000000
O    -0.948000000    -0.189000000    -4.793000000
H    -0.237000000    -0.828000000    -4.736000000
H    -1.396000000    -0.402000000    -5.612000000
O     2.008000000    -0.941000000    -3.793000000
H     2.600000000    -0.871000000    -4.543000000
H     2.182000000    -1.810000000    -3.431000000
O    -3.427000000     2.946000000     4.311000000
H    -3.175000000     2.341000000     3.613000000
H    -2.641000000     3.469000000     4.470000000
O     6.498000000     0.530000000    -2.691000000
H     6.579000000    -0.391000000    -2.939000000
H     6.760000000     1.013000000    -3.475000000
O     2.943000000    -3.321000000    -3.015000000
H     3.636000000    -3.701000000    -3.556000000
H     3.141000000    -3.619000000    -2.128000000
O    -5.271000000     1.849000000    -2.107000000
H    -5.921000000     1.368000000    -1.594000000
H    -4.659000000     2.192000000    -1.457000000
O     0.969000000     1.704000000    -4.487000000
H     0.485000000     0.896000000    -4.655000000
H     1.885000000     1.430000000    -4.440000000
O     2.045000000     3.462000000     3.320000000
H     2.606000000     2.761000000     3.651000000
H     2.640000000     4.043000000     2.846000000
O     3.073000000    -2.967000000     1.704000000
H     2.487000000    -2.373000000     2.172000000
H     3.897000000    -2.922000000     2.189000000
O     1.127000000    -6.251000000    -1.487000000
H     1.749000000    -5.620000000    -1.123000000
H     1.654000000    -7.030000000    -1.667000000
O     1.608000000     6.765000000     0.711000000
H     0.696000000     6.534000000     0.534000000
H     1.782000000     7.512000000     0.139000000
O    -6.389000000     3.454000000     3.454000000
H    -7.235000000     3.010000000     3.503000000
H    -5.781000000     2.862000000     3.898000000
O    -4.608000000     5.626000000     4.235000000
H    -5.125000000     6.025000000     4.936000000
H    -4.531000000     4.706000000     4.489000000
O     2.052000000    -2.735000000    -6.274000000
H     2.773000000    -2.176000000    -5.986000000
H     1.818000000    -3.245000000    -5.498000000
O     1.688000000    -0.745000000     3.246000000
H     0.993000000    -1.401000000     3.192000000
H     1.839000000    -0.481000000     2.339000000
