158
-3025.35221
C     0.157000000     1.306000000     0.610000000
H     0.409000000     2.268000000     1.048000000
C     0.622000000     0.923000000    -0.588000000
H     1.214000000     1.635000000    -1.157000000
C     0.449000000    -0.345000000    -1.105000000
H     0.899000000    -0.501000000    -2.120000000
C    -0.244000000    -1.288000000    -0.339000000
H    -0.251000000    -2.340000000    -0.615000000
C    -0.860000000    -0.869000000     0.857000000
H    -1.242000000    -1.674000000     1.480000000
C    -0.650000000     0.410000000     1.314000000
C    -1.306000000     0.780000000     2.634000000
O    -1.263000000     1.932000000     3.016000000
O    -1.839000000    -0.020000000     3.384000000
O    -1.044000000     4.487000000     1.918000000
H    -1.655000000     4.663000000     1.202000000
H    -1.347000000     3.660000000     2.293000000
O    -0.072000000    -6.285000000    -0.004000000
H     0.188000000    -6.726000000     0.805000000
H     0.743000000    -5.921000000    -0.351000000
O     1.496000000     1.801000000     6.744000000
H     1.056000000     0.968000000     6.915000000
H     1.497000000     1.880000000     5.791000000
O    -4.714000000     4.831000000     1.165000000
H    -3.951000000     4.671000000     0.610000000
H    -4.507000000     4.388000000     1.988000000
O     3.533000000    -4.263000000     1.257000000
H     3.585000000    -5.165000000     0.941000000
H     3.332000000    -3.747000000     0.476000000
O    -2.202000000    -0.444000000    -7.194000000
H    -2.330000000    -0.208000000    -8.113000000
H    -1.276000000    -0.681000000    -7.135000000
O     5.148000000    -0.260000000    -4.226000000
H     5.925000000    -0.693000000    -4.578000000
H     5.492000000     0.475000000    -3.718000000
O    -4.143000000    -2.700000000     2.344000000
H    -4.495000000    -2.374000000     1.516000000
H    -3.824000000    -1.918000000     2.794000000
O    -0.779000000     3.944000000    -5.418000000
H    -0.688000000     2.992000000    -5.470000000
H     0.090000000     4.255000000    -5.165000000
O    -3.575000000    -1.713000000    -3.570000000
H    -4.146000000    -2.255000000    -3.026000000
H    -3.095000000    -1.169000000    -2.946000000
O    -5.007000000    -0.997000000    -0.024000000
H    -5.157000000    -0.058000000     0.085000000
H    -4.117000000    -1.060000000    -0.370000000
O    -4.728000000    -3.614000000    -2.111000000
H    -5.406000000    -4.068000000    -1.610000000
H    -3.966000000    -4.192000000    -2.061000000
O    -0.200000000    -1.946000000     4.257000000
H    -0.710000000    -2.587000000     4.752000000
H    -0.824000000    -1.248000000     4.055000000
O     1.500000000     4.977000000    -4.491000000
H     1.805000000     5.201000000    -3.612000000
H     1.719000000     5.742000000    -5.023000000
O    -0.763000000     5.354000000     5.110000000
H    -0.812000000     6.159000000     5.624000000
H     0.121000000     5.358000000     4.742000000
O    -5.309000000     1.546000000     1.008000000
H    -6.116000000     2.040000000     1.157000000
H    -4.695000000     1.889000000     1.657000000
O     1.523000000    -1.385000000     6.406000000
H     1.111000000    -1.791000000     5.643000000
H     2.462000000    -1.508000000     6.264000000
O     1.953000000     4.778000000     4.568000000
H     1.637000000     3.910000000     4.316000000
H     2.256000000     5.170000000     3.748000000
O     0.042000000     7.511000000    -0.023000000
H    -0.222000000     7.448000000    -0.941000000
H     0.094000000     6.602000000     0.274000000
O     3.371000000    -1.689000000    -0.577000000
H     3.930000000    -1.150000000    -0.017000000
H     2.734000000    -1.075000000    -0.942000000
O    -3.777000000    -2.053000000     5.981000000
H    -3.475000000    -2.958000000     6.061000000
H    -4.539000000    -2.003000000     6.558000000
O    -6.984000000    -0.229000000     4.232000000
H    -6.040000000    -0.378000000     4.172000000
H    -7.341000000    -0.639000000     3.444000000
O    -0.486000000     1.218000000    -4.860000000
H    -0.905000000     0.407000000    -5.148000000
H     0.420000000     0.968000000    -4.678000000
O    -4.254000000    -0.418000000     3.967000000
H    -4.254000000    -1.143000000     4.591000000
H    -3.334000000    -0.160000000     3.899000000
O    -3.910000000     2.766000000     3.121000000
H    -4.444000000     2.192000000     3.671000000
H    -3.008000000     2.556000000     3.360000000
O    -0.314000000    -4.282000000    -3.189000000
H    -0.333000000    -3.395000000    -3.547000000
H     0.522000000    -4.335000000    -2.726000000
O    -1.887000000    -0.279000000     6.620000000
H    -1.369000000     0.129000000     5.926000000
H    -2.414000000    -0.939000000     6.169000000
O    -2.915000000    -0.112000000    -1.510000000
H    -2.072000000    -0.362000000    -1.130000000
H    -3.027000000     0.805000000    -1.260000000
O     0.583000000    -0.686000000    -7.338000000
H     1.109000000    -1.287000000    -7.865000000
H     1.171000000    -0.403000000    -6.638000000
O    -0.847000000    -5.280000000     3.074000000
H    -1.765000000    -5.514000000     3.210000000
H    -0.395000000    -6.120000000     2.993000000
O     4.588000000     4.056000000     2.163000000
H     3.929000000     4.642000000     2.535000000
H     5.102000000     4.614000000     1.579000000
O     2.524000000    -5.405000000    -1.520000000
H     2.726000000    -4.954000000    -2.340000000
H     2.629000000    -6.334000000    -1.726000000
O    -0.954000000    -2.128000000    -4.772000000
H    -1.021000000    -2.630000000    -5.585000000
H    -1.849000000    -1.843000000    -4.592000000
O    -2.459000000     4.587000000    -0.493000000
H    -2.041000000     3.954000000    -1.077000000
H    -2.459000000     5.406000000    -0.987000000
O     2.599000000    -4.363000000    -4.395000000
H     3.278000000    -4.769000000    -4.934000000
H     1.776000000    -4.694000000    -4.756000000
O    -2.243000000    -5.129000000    -1.392000000
H    -1.649000000    -5.444000000    -0.711000000
H    -1.672000000    -4.695000000    -2.027000000
O     2.490000000     0.757000000    -4.956000000
H     3.226000000     0.356000000    -4.494000000
H     2.834000000     1.591000000    -5.276000000
O    -4.282000000     2.588000000     6.790000000
H    -3.406000000     2.588000000     6.405000000
H    -4.855000000     2.885000000     6.083000000
O    -1.550000000    -4.049000000     5.312000000
H    -1.288000000    -4.391000000     4.457000000
H    -2.247000000    -4.638000000     5.602000000
O    -1.935000000     2.961000000     5.488000000
H    -1.626000000     2.379000000     4.794000000
H    -1.404000000     3.752000000     5.391000000
O     2.763000000    -2.704000000     3.518000000
H     1.806000000    -2.729000000     3.504000000
H     3.028000000    -3.322000000     2.836000000
O     4.784000000    -3.065000000    -2.600000000
H     4.143000000    -2.770000000    -3.248000000
H     4.523000000    -2.627000000    -1.789000000
O    -1.866000000     2.629000000    -2.863000000
H    -2.491000000     3.187000000    -3.327000000
H    -1.406000000     2.157000000    -3.557000000
O     1.408000000     2.330000000     3.896000000
H     0.557000000     2.301000000     3.457000000
H     1.952000000     1.715000000     3.404000000
O    -3.472000000     5.556000000     4.604000000
H    -2.561000000     5.267000000     4.665000000
H    -3.967000000     4.754000000     4.438000000
O     1.411000000     4.872000000     0.405000000
H     2.188000000     5.028000000     0.943000000
H     0.714000000     4.698000000     1.038000000
O     3.045000000     0.284000000     2.972000000
H     3.399000000     0.252000000     2.083000000
H     2.871000000    -0.631000000     3.194000000
O     2.456000000     6.073000000    -1.946000000
H     2.014000000     5.761000000    -1.157000000
H     2.286000000     7.014000000    -1.960000000
