158
-3012.73928
C    -0.167000000     1.373000000    -0.497000000
H    -0.246000000     2.363000000    -0.940000000
C     0.937000000     0.559000000    -0.600000000
H     1.768000000     1.015000000    -1.132000000
C     1.028000000    -0.702000000    -0.109000000
H     1.964000000    -1.307000000    -0.317000000
C    -0.124000000    -1.236000000     0.549000000
H    -0.047000000    -2.258000000     0.909000000
C    -1.200000000    -0.426000000     0.732000000
H    -2.087000000    -0.888000000     1.158000000
C    -1.225000000     0.873000000     0.225000000
C    -2.476000000     1.703000000     0.641000000
O    -2.793000000     2.696000000     0.007000000
O    -3.153000000     1.332000000     1.593000000
O     3.031000000    -1.786000000    -3.880000000
H     2.836000000    -2.710000000    -4.037000000
H     3.529000000    -1.783000000    -3.062000000
O    -5.403000000     3.172000000     0.941000000
H    -5.271000000     3.123000000    -0.005000000
H    -4.644000000     2.724000000     1.313000000
O     4.037000000    -4.416000000     1.343000000
H     4.160000000    -4.523000000     0.400000000
H     4.917000000    -4.256000000     1.683000000
O     1.402000000     3.552000000     3.456000000
H     2.167000000     3.006000000     3.272000000
H     1.094000000     3.831000000     2.594000000
O    -1.910000000     7.664000000    -0.887000000
H    -2.773000000     7.252000000    -0.913000000
H    -1.466000000     7.340000000    -1.670000000
O     5.424000000    -4.748000000    -1.401000000
H     5.125000000    -5.378000000    -2.057000000
H     5.898000000    -5.277000000    -0.759000000
O    -3.588000000     3.138000000    -2.685000000
H    -2.868000000     3.550000000    -3.163000000
H    -3.233000000     2.976000000    -1.811000000
O    -6.666000000    -0.341000000    -1.173000000
H    -6.626000000     0.349000000    -1.835000000
H    -5.851000000    -0.247000000    -0.680000000
O    -4.583000000    -2.456000000     2.107000000
H    -4.225000000    -1.936000000     2.827000000
H    -5.214000000    -3.042000000     2.525000000
O     0.598000000    -1.081000000    -5.198000000
H    -0.217000000    -1.340000000    -4.767000000
H     1.285000000    -1.336000000    -4.582000000
O    -2.809000000    -4.536000000     0.974000000
H    -2.153000000    -4.406000000     1.659000000
H    -3.488000000    -3.890000000     1.167000000
O     6.305000000    -1.271000000    -4.676000000
H     6.803000000    -0.553000000    -4.285000000
H     5.409000000    -1.137000000    -4.366000000
O    -1.257000000    -0.003000000     3.756000000
H    -0.359000000    -0.272000000     3.560000000
H    -1.521000000     0.519000000     2.998000000
O     4.993000000    -2.803000000     5.448000000
H     4.113000000    -2.868000000     5.818000000
H     4.852000000    -2.556000000     4.534000000
O     4.121000000     2.356000000    -2.011000000
H     3.751000000     3.148000000    -2.400000000
H     4.472000000     1.865000000    -2.754000000
O     6.333000000    -1.084000000     0.884000000
H     6.784000000    -0.967000000     1.720000000
H     6.366000000    -0.221000000     0.472000000
O     2.367000000    -6.676000000    -1.120000000
H     2.327000000    -7.316000000    -0.410000000
H     2.998000000    -7.044000000    -1.738000000
O    -2.693000000     5.435000000     2.280000000
H    -3.552000000     5.028000000     2.393000000
H    -2.120000000     4.717000000     2.011000000
O     5.561000000     1.389000000     0.053000000
H     4.972000000     1.624000000    -0.665000000
H     5.250000000     1.905000000     0.796000000
O    -4.295000000     6.444000000    -0.536000000
H    -4.960000000     6.286000000    -1.206000000
H    -4.751000000     6.298000000     0.293000000
O    -2.215000000    -6.269000000    -1.805000000
H    -1.541000000    -6.877000000    -1.502000000
H    -2.339000000    -5.665000000    -1.072000000
O    -7.610000000     1.125000000     1.187000000
H    -6.822000000     1.663000000     1.267000000
H    -7.351000000     0.404000000     0.613000000
O    -4.719000000    -0.502000000     0.484000000
H    -4.236000000     0.172000000     0.963000000
H    -4.492000000    -1.320000000     0.927000000
O    -5.877000000     5.593000000     2.034000000
H    -5.921000000     4.795000000     1.507000000
H    -6.672000000     5.572000000     2.568000000
O    -3.883000000    -4.032000000    -2.674000000
H    -3.380000000    -4.844000000    -2.746000000
H    -3.224000000    -3.339000000    -2.704000000
O     0.498000000    -5.779000000     5.017000000
H    -0.458000000    -5.825000000     5.009000000
H     0.718000000    -5.249000000     4.251000000
O    -4.416000000     1.299000000    -4.659000000
H    -3.928000000     2.054000000    -4.333000000
H    -5.310000000     1.438000000    -4.346000000
O     1.339000000     3.204000000    -4.278000000
H     1.160000000     2.978000000    -5.191000000
H     2.260000000     3.464000000    -4.272000000
O    -2.570000000     3.810000000     5.088000000
H    -2.250000000     3.281000000     5.819000000
H    -3.010000000     3.183000000     4.514000000
O    -3.118000000    -1.941000000     4.528000000
H    -3.560000000    -1.734000000     5.351000000
H    -2.457000000    -1.256000000     4.431000000
O    -4.292000000     1.684000000     3.885000000
H    -3.848000000     1.244000000     3.160000000
H    -4.836000000     1.003000000     4.282000000
O    -0.578000000     7.020000000    -3.423000000
H    -0.543000000     6.069000000    -3.327000000
H    -0.933000000     7.160000000    -4.302000000
O    -0.634000000    -1.522000000    -2.970000000
H    -1.279000000    -1.362000000    -2.281000000
H     0.145000000    -1.046000000    -2.684000000
O    -1.202000000    -3.945000000     3.132000000
H    -0.261000000    -4.045000000     2.985000000
H    -1.309000000    -3.024000000     3.373000000
O     1.200000000    -1.099000000     3.751000000
H     1.947000000    -1.561000000     4.132000000
H     1.588000000    -0.504000000     3.110000000
O     3.721000000     0.811000000    -4.524000000
H     3.988000000     0.611000000    -5.421000000
H     3.099000000     0.119000000    -4.299000000
O    -5.808000000     5.064000000    -2.345000000
H    -6.625000000     4.566000000    -2.371000000
H    -5.124000000     4.408000000    -2.476000000
O    -6.351000000    -0.084000000     4.858000000
H    -5.862000000    -0.490000000     5.574000000
H    -7.074000000    -0.688000000     4.690000000
O    -1.232000000     4.891000000     0.046000000
H    -1.616000000     5.767000000     0.012000000
H    -1.960000000     4.303000000    -0.157000000
O     6.326000000    -4.253000000     2.608000000
H     6.893000000    -3.629000000     2.154000000
H     6.790000000    -4.451000000     3.421000000
O     2.175000000    -5.282000000    -3.839000000
H     1.314000000    -5.668000000    -3.996000000
H     2.421000000    -5.590000000    -2.967000000
O     4.606000000    -2.039000000    -1.552000000
H     5.032000000    -1.422000000    -0.957000000
H     4.884000000    -2.901000000    -1.243000000
O    -1.245000000     4.209000000    -3.920000000
H    -0.459000000     3.699000000    -3.725000000
H    -1.251000000     4.286000000    -4.874000000
O     1.478000000    -4.634000000     2.506000000
H     1.558000000    -5.038000000     1.642000000
H     2.375000000    -4.397000000     2.743000000
O     1.199000000     5.481000000     1.069000000
H     0.390000000     5.331000000     0.581000000
H     1.268000000     6.434000000     1.131000000
O     4.020000000    -2.240000000     2.989000000
H     4.121000000    -3.111000000     2.605000000
H     4.032000000    -1.645000000     2.240000000
O    -5.876000000     3.946000000     4.891000000
H    -5.055000000     4.202000000     5.313000000
H    -5.616000000     3.305000000     4.230000000
O     2.529000000     1.039000000     2.300000000
H     2.574000000     0.844000000     1.364000000
H     3.324000000     1.542000000     2.478000000
