158
-3007.09594
C     0.518000000     1.254000000     0.403000000
H     0.843000000     2.255000000     0.675000000
C     1.088000000     0.558000000    -0.584000000
H     1.972000000     0.962000000    -1.071000000
C     0.516000000    -0.711000000    -0.874000000
H     0.829000000    -1.326000000    -1.702000000
C    -0.595000000    -1.188000000    -0.227000000
H    -0.966000000    -2.188000000    -0.433000000
C    -1.199000000    -0.428000000     0.777000000
H    -2.090000000    -0.748000000     1.311000000
C    -0.626000000     0.832000000     1.073000000
C    -1.256000000     1.838000000     2.065000000
O    -0.763000000     2.934000000     2.383000000
O    -2.215000000     1.499000000     2.733000000
O    -0.520000000    -4.898000000    -6.667000000
H    -1.106000000    -5.619000000    -6.900000000
H    -0.636000000    -4.791000000    -5.723000000
O    -3.498000000     5.289000000     6.556000000
H    -3.171000000     4.538000000     6.061000000
H    -3.891000000     4.906000000     7.340000000
O    -1.346000000     5.220000000     1.320000000
H    -2.114000000     5.405000000     1.861000000
H    -0.923000000     4.477000000     1.750000000
O     0.661000000    -3.950000000     0.963000000
H     0.118000000    -4.737000000     0.997000000
H     0.193000000    -3.312000000     1.501000000
O    -0.075000000     3.502000000     6.626000000
H     0.457000000     3.475000000     5.831000000
H     0.200000000     2.732000000     7.124000000
O     3.738000000    -5.499000000    -1.461000000
H     3.528000000    -6.214000000    -0.860000000
H     3.232000000    -4.755000000    -1.134000000
O    -2.735000000     3.366000000    -0.863000000
H    -2.302000000     2.604000000    -1.248000000
H    -2.101000000     3.708000000    -0.232000000
O     3.754000000    -3.796000000    -5.637000000
H     4.356000000    -3.285000000    -6.179000000
H     3.704000000    -4.647000000    -6.072000000
O    -5.760000000    -2.897000000     2.610000000
H    -5.340000000    -2.967000000     1.752000000
H    -5.226000000    -2.262000000     3.087000000
O    -2.530000000    -3.345000000    -2.390000000
H    -2.844000000    -4.244000000    -2.291000000
H    -1.609000000    -3.439000000    -2.633000000
O    -5.293000000    -1.637000000    -0.066000000
H    -6.086000000    -1.115000000     0.055000000
H    -4.852000000    -1.234000000    -0.813000000
O     6.200000000    -3.131000000    -0.306000000
H     5.741000000    -2.727000000    -1.042000000
H     5.513000000    -3.571000000     0.194000000
O    -0.865000000     0.364000000     4.651000000
H    -1.348000000     0.548000000     5.457000000
H    -1.382000000     0.777000000     3.961000000
O     4.674000000    -0.028000000    -2.775000000
H     5.480000000    -0.159000000    -3.274000000
H     4.492000000     0.909000000    -2.854000000
O    -0.695000000     6.614000000     5.045000000
H     0.122000000     6.464000000     4.569000000
H    -0.913000000     7.528000000     4.863000000
O    -7.135000000     0.161000000     2.860000000
H    -7.573000000     0.289000000     2.018000000
H    -6.237000000     0.454000000     2.709000000
O     1.826000000     0.434000000     5.091000000
H     0.964000000     0.770000000     4.845000000
H     2.436000000     0.902000000     4.520000000
O     1.861000000     6.173000000     3.580000000
H     1.784000000     6.003000000     2.641000000
H     2.613000000     6.761000000     3.656000000
O    -0.662000000     7.792000000     1.757000000
H    -0.976000000     7.032000000     1.268000000
H    -1.402000000     8.044000000     2.310000000
O     4.592000000     0.824000000     0.142000000
H     4.490000000     0.512000000    -0.757000000
H     5.384000000     0.389000000     0.458000000
O    -2.605000000     0.641000000     6.971000000
H    -3.046000000    -0.129000000     7.331000000
H    -3.257000000     1.044000000     6.398000000
O    -4.937000000     0.382000000     5.613000000
H    -5.577000000    -0.089000000     6.147000000
H    -4.906000000    -0.106000000     4.790000000
O    -0.969000000    -5.313000000    -4.011000000
H    -1.178000000    -5.824000000    -3.228000000
H    -0.013000000    -5.298000000    -4.038000000
O     3.766000000     2.569000000    -2.949000000
H     3.756000000     3.152000000    -3.709000000
H     3.756000000     3.159000000    -2.195000000
O    -3.773000000    -0.943000000     3.454000000
H    -3.305000000    -1.565000000     4.011000000
H    -3.082000000    -0.428000000     3.037000000
O    -4.444000000     2.073000000     0.929000000
H    -4.131000000     2.620000000     0.208000000
H    -3.713000000     2.048000000     1.546000000
O    -2.813000000    -3.085000000    -5.162000000
H    -2.922000000    -2.586000000    -4.353000000
H    -2.402000000    -3.904000000    -4.885000000
O     0.104000000    -2.706000000     4.100000000
H    -0.842000000    -2.705000000     4.244000000
H     0.369000000    -1.797000000     4.243000000
O    -1.558000000     1.393000000    -2.302000000
H    -1.443000000     0.500000000    -1.977000000
H    -0.745000000     1.586000000    -2.767000000
O    -1.718000000    -0.442000000    -6.169000000
H    -0.890000000    -0.788000000    -5.834000000
H    -2.213000000    -1.218000000    -6.432000000
O    -2.587000000    -6.582000000    -1.459000000
H    -2.894000000    -7.478000000    -1.603000000
H    -3.032000000    -6.303000000    -0.659000000
O     2.834000000     0.517000000    -4.950000000
H     3.346000000     0.214000000    -5.699000000
H     3.162000000     0.004000000    -4.212000000
O    -2.559000000    -3.068000000     4.720000000
H    -3.375000000    -3.568000000     4.705000000
H    -2.181000000    -3.249000000     5.580000000
O    -2.501000000     3.540000000     4.624000000
H    -2.273000000     3.068000000     3.823000000
H    -1.666000000     3.879000000     4.948000000
O     2.660000000    -2.109000000    -3.652000000
H     3.355000000    -2.424000000    -4.229000000
H     3.051000000    -1.370000000    -3.186000000
O    -6.720000000     1.004000000    -0.568000000
H    -6.223000000     0.852000000    -1.372000000
H    -6.095000000     1.424000000     0.024000000
O     0.760000000     1.911000000    -3.334000000
H     1.093000000     1.837000000    -4.228000000
H     1.544000000     2.018000000    -2.794000000
O    -0.939000000    -6.505000000     1.307000000
H    -0.997000000    -7.158000000     0.610000000
H    -1.848000000    -6.339000000     1.556000000
O     1.165000000     3.431000000     4.069000000
H     0.766000000     2.944000000     3.349000000
H     1.209000000     4.333000000     3.752000000
O     2.875000000    -3.048000000    -0.453000000
H     2.098000000    -3.284000000     0.053000000
H     2.871000000    -2.091000000    -0.466000000
O     1.626000000    -4.650000000    -3.952000000
H     2.350000000    -5.275000000    -3.983000000
H     2.034000000    -3.824000000    -3.690000000
O     2.634000000     5.358000000    -1.028000000
H     2.194000000     6.144000000    -0.704000000
H     2.819000000     5.550000000    -1.948000000
O    -5.242000000     3.041000000     4.344000000
H    -5.331000000     2.726000000     5.244000000
H    -4.310000000     2.945000000     4.148000000
O    -3.131000000     5.695000000     3.262000000
H    -3.080000000     6.391000000     3.918000000
H    -2.902000000     4.898000000     3.740000000
O     0.828000000    -1.715000000    -5.880000000
H     1.615000000    -1.432000000    -5.415000000
H     0.836000000    -2.669000000    -5.804000000
O     3.608000000     3.517000000     0.832000000
H     3.243000000     4.103000000     0.169000000
H     3.714000000     2.680000000     0.380000000
O    -5.998000000    -3.716000000    -1.733000000
H    -5.929000000    -3.206000000    -2.540000000
H    -5.453000000    -3.245000000    -1.103000000
O     4.044000000     0.758000000     2.992000000
H     4.085000000     0.987000000     2.063000000
H     4.152000000    -0.193000000     3.008000000
