158
-3004.75789
C    -0.897000000     1.044000000    -0.492000000
H    -1.502000000     1.804000000    -0.980000000
C     0.470000000     1.007000000    -0.651000000
H     0.989000000     1.867000000    -1.067000000
C     1.202000000    -0.042000000    -0.153000000
H     2.292000000    -0.040000000    -0.284000000
C     0.528000000    -1.153000000     0.299000000
H     1.113000000    -2.045000000     0.505000000
C    -0.850000000    -1.148000000     0.533000000
H    -1.301000000    -2.009000000     1.019000000
C    -1.581000000    -0.011000000     0.146000000
C    -3.021000000     0.083000000     0.325000000
O    -3.649000000     0.919000000    -0.313000000
O    -3.563000000    -0.509000000     1.155000000
O    -3.956000000     2.881000000    -1.836000000
H    -3.376000000     2.818000000    -2.594000000
H    -3.692000000     2.155000000    -1.271000000
O     4.341000000     1.422000000     5.322000000
H     3.562000000     1.256000000     5.854000000
H     4.264000000     0.812000000     4.589000000
O    -2.835000000    -1.803000000    -4.085000000
H    -3.273000000    -1.587000000    -3.262000000
H    -2.049000000    -2.281000000    -3.820000000
O     2.462000000     6.960000000    -1.594000000
H     2.983000000     6.836000000    -2.387000000
H     1.953000000     6.154000000    -1.513000000
O     1.657000000    -4.285000000     0.914000000
H     1.915000000    -4.396000000     1.829000000
H     2.318000000    -4.770000000     0.418000000
O    -0.180000000    -6.226000000     1.812000000
H     0.139000000    -6.693000000     1.040000000
H     0.249000000    -5.371000000     1.770000000
O     5.168000000     4.555000000    -1.937000000
H     4.686000000     4.737000000    -2.744000000
H     6.071000000     4.804000000    -2.135000000
O    -3.616000000    -5.971000000     2.148000000
H    -2.832000000    -6.020000000     1.602000000
H    -3.775000000    -5.034000000     2.256000000
O    -2.599000000     0.011000000     3.769000000
H    -2.970000000    -0.145000000     2.900000000
H    -3.163000000    -0.484000000     4.363000000
O    -3.472000000    -3.267000000     1.601000000
H    -3.083000000    -3.409000000     0.739000000
H    -3.955000000    -2.446000000     1.514000000
O    -2.493000000    -4.185000000    -1.202000000
H    -2.660000000    -4.436000000    -2.111000000
H    -1.791000000    -4.769000000    -0.917000000
O     0.595000000     4.711000000     1.899000000
H     0.006000000     4.418000000     2.594000000
H     0.113000000     5.408000000     1.454000000
O     3.935000000     1.665000000    -3.270000000
H     4.653000000     1.641000000    -3.902000000
H     4.273000000     2.190000000    -2.544000000
O     4.355000000     2.743000000    -0.013000000
H     4.504000000     3.503000000    -0.575000000
H     3.741000000     3.054000000     0.652000000
O    -6.595000000     3.270000000    -1.793000000
H    -6.692000000     2.856000000    -0.935000000
H    -5.664000000     3.488000000    -1.849000000
O     6.824000000    -3.009000000     1.089000000
H     7.154000000    -3.613000000     0.424000000
H     6.150000000    -2.502000000     0.638000000
O    -3.906000000     3.937000000     1.385000000
H    -4.339000000     3.268000000     0.854000000
H    -3.686000000     3.488000000     2.201000000
O    -6.305000000     0.017000000     5.075000000
H    -6.273000000    -0.843000000     5.494000000
H    -6.191000000    -0.166000000     4.142000000
O     1.776000000     3.469000000    -4.838000000
H     2.097000000     2.614000000    -4.552000000
H     2.060000000     3.539000000    -5.749000000
O     0.141000000     0.897000000     5.141000000
H     0.341000000     0.787000000     4.211000000
H    -0.646000000     0.371000000     5.281000000
O    -5.718000000    -1.415000000     2.592000000
H    -6.308000000    -1.647000000     1.875000000
H    -4.956000000    -1.028000000     2.160000000
O    -7.718000000    -0.778000000    -2.129000000
H    -8.000000000    -0.115000000    -2.760000000
H    -7.308000000    -1.458000000    -2.663000000
O     3.065000000    -0.894000000    -2.767000000
H     3.425000000    -0.044000000    -3.020000000
H     2.125000000    -0.739000000    -2.675000000
O     0.947000000    -3.264000000     4.229000000
H     1.079000000    -4.173000000     4.498000000
H     0.020000000    -3.216000000     3.996000000
O    -6.360000000     0.908000000    -0.108000000
H    -5.408000000     0.895000000    -0.204000000
H    -6.677000000     0.304000000    -0.780000000
O     3.304000000    -5.905000000    -0.509000000
H     3.443000000    -5.678000000    -1.429000000
H     4.118000000    -6.333000000    -0.243000000
O     8.573000000     0.372000000     0.926000000
H     7.643000000     0.191000000     0.791000000
H     8.731000000     0.148000000     1.844000000
O     5.828000000     0.619000000     0.411000000
H     5.521000000     0.094000000    -0.328000000
H     5.358000000     1.449000000     0.327000000
O     2.984000000     3.600000000     2.063000000
H     3.302000000     3.608000000     2.966000000
H     2.181000000     4.122000000     2.088000000
O    -0.368000000    -3.278000000    -3.630000000
H     0.023000000    -3.732000000    -2.884000000
H     0.202000000    -3.494000000    -4.368000000
O    -3.717000000     0.814000000    -6.004000000
H    -4.291000000     0.151000000    -6.386000000
H    -3.569000000     0.515000000    -5.106000000
O    -2.550000000     3.285000000    -4.139000000
H    -1.760000000     3.645000000    -3.735000000
H    -2.243000000     2.522000000    -4.628000000
O     5.312000000    -1.556000000    -1.475000000
H     5.666000000    -2.343000000    -1.890000000
H     4.421000000    -1.485000000    -1.818000000
O    -4.537000000    -3.611000000     4.546000000
H    -4.376000000    -2.896000000     5.162000000
H    -4.508000000    -3.195000000     3.684000000
O    -6.602000000     2.863000000     1.717000000
H    -7.479000000     3.244000000     1.713000000
H    -6.689000000     2.055000000     1.210000000
O    -5.206000000     6.200000000     0.688000000
H    -4.591000000     6.786000000     0.246000000
H    -4.684000000     5.431000000     0.914000000
O    -1.597000000    -4.155000000     3.722000000
H    -2.147000000    -4.938000000     3.753000000
H    -2.055000000    -3.565000000     3.123000000
O    -2.704000000     2.766000000     3.725000000
H    -2.803000000     1.815000000     3.773000000
H    -1.795000000     2.898000000     3.454000000
O     0.717000000     0.879000000     2.700000000
H     0.497000000     0.467000000     1.865000000
H     1.649000000     1.086000000     2.627000000
O     0.356000000    -4.710000000    -1.449000000
H     0.628000000    -4.381000000    -0.592000000
H     0.277000000    -5.656000000    -1.328000000
O    -6.205000000    -3.981000000    -1.974000000
H    -6.028000000    -3.115000000    -1.607000000
H    -5.493000000    -4.530000000    -1.646000000
O     3.400000000    -4.118000000     3.123000000
H     4.105000000    -3.496000000     3.300000000
H     2.709000000    -3.880000000     3.741000000
O    -0.133000000     4.338000000    -3.254000000
H     0.364000000     4.365000000    -2.436000000
H     0.400000000     3.801000000    -3.840000000
O     3.512000000    -2.797000000    -4.849000000
H     3.146000000    -2.167000000    -4.227000000
H     3.899000000    -2.256000000    -5.537000000
O    -1.809000000     5.013000000    -0.302000000
H    -2.456000000     5.714000000    -0.379000000
H    -2.274000000     4.304000000     0.141000000
O     7.441000000     4.027000000     0.289000000
H     7.488000000     4.652000000    -0.435000000
H     6.821000000     3.361000000    -0.010000000
O     4.003000000     0.065000000     2.990000000
H     3.741000000    -0.770000000     2.602000000
H     4.566000000     0.470000000     2.330000000
O     0.815000000     4.673000000    -0.830000000
H     1.176000000     4.384000000     0.008000000
H    -0.108000000     4.849000000    -0.645000000
