158
-3021.20578
C    -0.811000000    -1.061000000     0.577000000
H    -1.543000000    -1.852000000     0.714000000
C    -0.158000000    -1.047000000    -0.652000000
H    -0.308000000    -1.876000000    -1.338000000
C     0.578000000     0.029000000    -1.073000000
H     1.094000000     0.101000000    -2.057000000
C     0.738000000     1.051000000    -0.194000000
H     1.361000000     1.847000000    -0.594000000
C     0.037000000     1.062000000     0.996000000
H     0.052000000     1.953000000     1.618000000
C    -0.718000000     0.029000000     1.462000000
C    -1.368000000    -0.024000000     2.840000000
O    -1.250000000     0.984000000     3.527000000
O    -2.010000000    -1.046000000     3.107000000
O     1.306000000     1.270000000     4.217000000
H     1.408000000     0.343000000     4.434000000
H     0.401000000     1.348000000     3.916000000
O     3.954000000    -1.875000000    -4.156000000
H     4.432000000    -2.705000000    -4.147000000
H     3.036000000    -2.128000000    -4.252000000
O    -3.294000000     0.193000000     7.900000000
H    -3.691000000     0.842000000     8.480000000
H    -3.382000000     0.568000000     7.024000000
O     3.252000000     4.700000000     0.464000000
H     3.374000000     3.949000000     1.045000000
H     2.327000000     4.667000000     0.222000000
O    -1.561000000     1.474000000    -3.819000000
H    -1.885000000     2.081000000    -4.485000000
H    -1.768000000     1.899000000    -2.987000000
O    -4.262000000    -2.911000000    -3.356000000
H    -4.389000000    -2.162000000    -3.938000000
H    -4.568000000    -2.606000000    -2.502000000
O     1.197000000     1.416000000    -4.166000000
H     0.246000000     1.518000000    -4.143000000
H     1.402000000     1.290000000    -5.092000000
O     1.063000000     1.100000000    -6.855000000
H     0.143000000     1.198000000    -7.100000000
H     1.534000000     1.101000000    -7.688000000
O     3.134000000    -0.227000000     0.947000000
H     3.112000000    -1.154000000     0.709000000
H     2.456000000     0.175000000     0.404000000
O    -2.522000000     3.671000000    -1.518000000
H    -1.941000000     3.889000000    -0.789000000
H    -3.339000000     3.399000000    -1.100000000
O    -0.612000000    -0.184000000     7.065000000
H    -0.399000000    -0.707000000     6.292000000
H    -1.439000000     0.244000000     6.844000000
O    -0.515000000    -1.114000000    -4.380000000
H    -0.991000000    -1.541000000    -3.669000000
H    -0.875000000    -0.227000000    -4.411000000
O    -1.452000000     4.135000000     1.153000000
H    -0.664000000     4.490000000     1.564000000
H    -2.060000000     3.998000000     1.879000000
O    -1.682000000    -3.536000000    -2.921000000
H    -1.294000000    -3.952000000    -3.691000000
H    -2.625000000    -3.666000000    -3.028000000
O     0.462000000     5.194000000     2.511000000
H     0.496000000     5.189000000     3.468000000
H     0.243000000     6.097000000     2.284000000
O    -4.076000000    -3.754000000    -0.211000000
H    -3.663000000    -3.548000000     0.627000000
H    -4.666000000    -3.018000000    -0.376000000
O     1.108000000     3.237000000     6.254000000
H     0.978000000     2.655000000     5.505000000
H     1.475000000     4.036000000     5.876000000
O    -5.071000000    -1.434000000    -1.256000000
H    -5.382000000    -1.363000000    -0.354000000
H    -5.811000000    -1.141000000    -1.788000000
O     5.612000000     0.816000000     1.311000000
H     5.971000000     1.013000000     0.445000000
H     4.762000000     0.416000000     1.132000000
O     2.728000000    -3.024000000     0.992000000
H     3.444000000    -3.584000000     1.293000000
H     2.205000000    -2.861000000     1.777000000
O    -3.200000000    -3.533000000     2.341000000
H    -2.695000000    -2.734000000     2.494000000
H    -3.416000000    -3.851000000     3.218000000
O     0.358000000    -4.670000000     1.133000000
H     1.002000000    -4.230000000     0.576000000
H     0.879000000    -5.246000000     1.691000000
O     1.171000000    -3.555000000     3.500000000
H     0.871000000    -3.913000000     2.664000000
H     1.179000000    -4.306000000     4.093000000
O    -2.340000000     1.765000000     5.644000000
H    -1.993000000     1.427000000     4.818000000
H    -2.608000000     2.661000000     5.442000000
O    -1.958000000    -5.996000000     1.546000000
H    -1.115000000    -5.553000000     1.449000000
H    -2.602000000    -5.353000000     1.250000000
O    -2.738000000     3.230000000     3.196000000
H    -3.677000000     3.047000000     3.167000000
H    -2.324000000     2.388000000     3.008000000
O     1.702000000    -1.689000000    -6.956000000
H     1.431000000    -2.073000000    -6.123000000
H     1.681000000    -0.744000000    -6.803000000
O     3.631000000     3.108000000    -4.350000000
H     2.989000000     2.617000000    -3.837000000
H     4.475000000     2.730000000    -4.103000000
O    -0.316000000    -1.953000000     4.978000000
H     0.182000000    -2.651000000     4.555000000
H    -1.029000000    -1.763000000     4.368000000
O     5.820000000     4.451000000    -0.349000000
H     5.862000000     5.179000000    -0.969000000
H     4.896000000     4.204000000    -0.332000000
O    -3.554000000    -4.464000000     4.853000000
H    -3.954000000    -3.851000000     5.470000000
H    -2.887000000    -4.920000000     5.366000000
O    -4.622000000    -0.800000000     3.232000000
H    -3.671000000    -0.892000000     3.170000000
H    -4.768000000     0.142000000     3.312000000
O    -4.932000000     1.909000000    -1.060000000
H    -4.128000000     1.390000000    -1.049000000
H    -5.278000000     1.796000000    -1.945000000
O     1.490000000    -2.744000000    -4.369000000
H     0.801000000    -2.081000000    -4.326000000
H     1.019000000    -3.576000000    -4.417000000
O    -4.003000000    -0.444000000    -5.123000000
H    -3.977000000    -1.037000000    -5.873000000
H    -3.246000000     0.129000000    -5.244000000
O     0.680000000     4.810000000    -3.823000000
H     0.481000000     5.522000000    -4.430000000
H     0.142000000     4.079000000    -4.127000000
O    -2.153000000     5.443000000     5.020000000
H    -2.351000000     5.078000000     5.882000000
H    -2.208000000     4.695000000     4.425000000
O    -2.883000000     0.068000000    -1.462000000
H    -3.588000000    -0.571000000    -1.571000000
H    -2.089000000    -0.462000000    -1.391000000
O    -5.208000000     1.954000000     3.141000000
H    -5.716000000     1.685000000     2.375000000
H    -5.825000000     2.457000000     3.673000000
O     1.592000000    -5.217000000    -1.801000000
H     2.231000000    -4.579000000    -2.117000000
H     0.768000000    -4.955000000    -2.212000000
O     3.497000000     0.540000000    -3.054000000
H     3.727000000    -0.338000000    -3.358000000
H     2.566000000     0.628000000    -3.261000000
O     4.208000000     0.653000000    -6.132000000
H     3.671000000    -0.122000000    -5.967000000
H     3.798000000     1.344000000    -5.611000000
O     3.062000000     2.033000000     2.207000000
H     3.285000000     1.143000000     1.935000000
H     2.458000000     1.916000000     2.940000000
O    -6.682000000    -1.283000000     1.300000000
H    -7.014000000    -0.387000000     1.354000000
H    -6.141000000    -1.385000000     2.083000000
O    -4.771000000    -1.944000000     5.743000000
H    -4.781000000    -1.558000000     4.867000000
H    -4.748000000    -1.193000000     6.335000000
O    -1.039000000    -3.306000000    -6.302000000
H    -1.300000000    -3.215000000    -7.219000000
H    -0.978000000    -2.406000000    -5.980000000
O     5.951000000     0.591000000    -1.664000000
H     6.494000000     1.128000000    -2.241000000
H     5.091000000     0.584000000    -2.083000000
O     0.901000000     4.625000000    -0.929000000
H     0.122000000     4.964000000    -0.488000000
H     0.690000000     4.675000000    -1.861000000
