158
-3029.54846
C    -0.936000000     1.124000000     0.269000000
H    -1.612000000     1.975000000     0.287000000
C     0.267000000     1.139000000    -0.475000000
H     0.573000000     2.044000000    -0.993000000
C     1.109000000     0.056000000    -0.625000000
H     1.973000000     0.290000000    -1.212000000
C     0.722000000    -1.122000000     0.045000000
H     1.361000000    -1.998000000    -0.031000000
C    -0.490000000    -1.138000000     0.754000000
H    -0.763000000    -2.109000000     1.160000000
C    -1.351000000    -0.064000000     0.899000000
C    -2.683000000    -0.145000000     1.600000000
O    -3.520000000     0.733000000     1.535000000
O    -3.027000000    -1.156000000     2.204000000
O    -4.138000000     3.095000000     0.356000000
H    -3.668000000     3.073000000    -0.477000000
H    -3.993000000     2.229000000     0.736000000
O     0.324000000    -4.973000000     1.451000000
H    -0.213000000    -5.480000000     2.060000000
H     0.861000000    -4.415000000     2.012000000
O     3.730000000     1.195000000    -5.031000000
H     3.942000000     2.068000000    -4.701000000
H     4.509000000     0.672000000    -4.844000000
O     1.307000000    -1.293000000    -4.770000000
H     2.247000000    -1.438000000    -4.670000000
H     1.061000000    -1.824000000    -5.527000000
O     4.240000000     5.206000000    -1.931000000
H     3.828000000     5.662000000    -2.665000000
H     4.711000000     4.478000000    -2.336000000
O    -2.562000000    -3.871000000     1.928000000
H    -1.938000000    -3.951000000     1.207000000
H    -2.587000000    -2.933000000     2.120000000
O     3.953000000    -2.572000000    -4.567000000
H     3.583000000    -3.453000000    -4.625000000
H     4.417000000    -2.452000000    -5.395000000
O    -2.754000000    -1.648000000     5.123000000
H    -3.121000000    -1.457000000     4.260000000
H    -3.351000000    -1.221000000     5.737000000
O    -3.586000000    -2.587000000    -2.559000000
H    -3.045000000    -2.957000000    -1.861000000
H    -4.331000000    -3.184000000    -2.627000000
O    -5.260000000    -2.657000000     1.165000000
H    -4.706000000    -3.079000000     0.508000000
H    -4.643000000    -2.249000000     1.772000000
O     6.251000000    -3.551000000    -3.072000000
H     6.461000000    -2.626000000    -2.938000000
H     5.904000000    -3.591000000    -3.963000000
O    -1.517000000     3.117000000     3.118000000
H    -1.829000000     2.839000000     3.979000000
H    -2.126000000     3.806000000     2.853000000
O    -7.512000000    -3.421000000     2.387000000
H    -8.203000000    -2.841000000     2.067000000
H    -6.700000000    -3.020000000     2.078000000
O    -5.780000000     3.602000000    -2.061000000
H    -6.711000000     3.816000000    -2.005000000
H    -5.497000000     3.525000000    -1.150000000
O     3.950000000     1.812000000    -1.641000000
H     3.532000000     2.363000000    -0.980000000
H     4.843000000     2.151000000    -1.705000000
O     3.255000000     3.674000000     0.353000000
H     3.324000000     4.424000000    -0.237000000
H     3.125000000     4.061000000     1.219000000
O     4.298000000     2.398000000     3.472000000
H     4.021000000     3.182000000     2.997000000
H     4.584000000     1.792000000     2.788000000
O    -6.595000000     4.384000000     1.123000000
H    -5.698000000     4.084000000     0.974000000
H    -6.679000000     4.426000000     2.075000000
O     5.536000000    -2.532000000     0.627000000
H     6.201000000    -3.216000000     0.551000000
H     5.458000000    -2.174000000    -0.257000000
O     4.531000000    -4.275000000     2.895000000
H     4.590000000    -4.341000000     1.942000000
H     5.167000000    -4.913000000     3.219000000
O    -5.771000000     0.032000000     6.032000000
H    -6.173000000    -0.372000000     5.263000000
H    -5.572000000    -0.702000000     6.613000000
O     1.107000000     1.333000000    -4.464000000
H     0.845000000     0.414000000    -4.520000000
H     2.063000000     1.307000000    -4.407000000
O    -0.968000000     0.363000000     5.353000000
H    -0.657000000     0.213000000     4.461000000
H    -1.569000000    -0.362000000     5.523000000
O    -5.688000000    -1.055000000     3.393000000
H    -6.200000000    -0.281000000     3.156000000
H    -4.792000000    -0.836000000     3.139000000
O     0.747000000    -2.668000000    -2.445000000
H     0.695000000    -2.097000000    -3.211000000
H     0.628000000    -2.081000000    -1.699000000
O     1.089000000    -4.645000000     5.274000000
H     0.350000000    -5.197000000     5.016000000
H     1.169000000    -4.006000000     4.566000000
O    -5.954000000     0.133000000     0.552000000
H    -5.037000000     0.407000000     0.550000000
H    -5.920000000    -0.817000000     0.670000000
O     2.654000000     1.188000000    -7.723000000
H     3.170000000     1.971000000    -7.916000000
H     2.873000000     0.975000000    -6.815000000
O    -3.368000000    -6.559000000     1.836000000
H    -2.896000000    -6.831000000     1.049000000
H    -3.282000000    -5.605000000     1.849000000
O     4.016000000     0.946000000     1.186000000
H     4.849000000     1.061000000     0.728000000
H     3.435000000     0.555000000     0.534000000
O     6.688000000     1.527000000    -0.481000000
H     6.809000000     2.472000000    -0.568000000
H     7.197000000     1.291000000     0.295000000
O    -1.206000000    -4.081000000    -0.753000000
H    -0.518000000    -4.405000000    -0.173000000
H    -0.741000000    -3.793000000    -1.538000000
O    -2.967000000    -0.162000000    -3.894000000
H    -3.907000000    -0.029000000    -3.777000000
H    -2.740000000    -0.842000000    -3.261000000
O    -2.402000000     2.634000000    -2.076000000
H    -1.828000000     3.007000000    -2.745000000
H    -2.756000000     1.842000000    -2.479000000
O     3.768000000    -2.086000000    -1.634000000
H     3.553000000    -1.922000000    -2.552000000
H     3.195000000    -2.809000000    -1.380000000
O    -5.935000000    -3.641000000     4.430000000
H    -6.589000000    -3.870000000     3.770000000
H    -5.863000000    -2.688000000     4.376000000
O    -4.483000000     4.587000000     4.673000000
H    -4.017000000     4.564000000     3.837000000
H    -5.376000000     4.319000000     4.457000000
O    -3.001000000    -4.713000000     4.698000000
H    -2.910000000    -4.457000000     3.780000000
H    -3.225000000    -3.901000000     5.152000000
O    -5.068000000     1.822000000     3.426000000
H    -4.445000000     1.466000000     2.793000000
H    -4.521000000     2.229000000     4.098000000
O     0.448000000     1.398000000     3.042000000
H     0.794000000     1.510000000     2.157000000
H    -0.216000000     2.082000000     3.128000000
O    -8.528000000     1.655000000     0.329000000
H    -7.714000000     1.155000000     0.262000000
H    -8.674000000     1.994000000    -0.554000000
O     6.329000000    -0.824000000    -2.308000000
H     5.383000000    -0.797000000    -2.450000000
H     6.468000000    -0.297000000    -1.521000000
O     1.882000000    -3.165000000     3.023000000
H     2.795000000    -3.446000000     2.961000000
H     1.928000000    -2.210000000     3.062000000
O    -0.440000000     3.515000000    -4.189000000
H     0.294000000     4.129000000    -4.163000000
H    -0.029000000     2.654000000    -4.268000000
O     2.092000000    -4.590000000    -4.204000000
H     2.056000000    -5.365000000    -3.644000000
H     1.577000000    -3.933000000    -3.736000000
O    -3.319000000     4.841000000     2.106000000
H    -3.165000000     5.603000000     1.548000000
H    -3.447000000     4.117000000     1.494000000
O     2.704000000    -0.528000000     3.125000000
H     1.987000000     0.092000000     3.260000000
H     3.285000000    -0.090000000     2.503000000
O    -0.226000000     5.827000000     0.732000000
H    -0.066000000     4.906000000     0.940000000
H    -1.099000000     6.004000000     1.082000000
