158
-3031.18965
C    -0.778000000     1.273000000     0.328000000
H    -1.257000000     2.133000000     0.789000000
C     0.464000000     0.877000000     0.881000000
H     1.002000000     1.475000000     1.613000000
C     1.113000000    -0.292000000     0.415000000
H     2.147000000    -0.445000000     0.854000000
C     0.560000000    -1.079000000    -0.602000000
H     1.095000000    -1.999000000    -0.826000000
C    -0.743000000    -0.674000000    -1.123000000
H    -1.245000000    -1.291000000    -1.864000000
C    -1.426000000     0.484000000    -0.645000000
C    -2.851000000     0.775000000    -1.045000000
O    -3.430000000     1.784000000    -0.625000000
O    -3.360000000    -0.072000000    -1.708000000
O    -1.226000000     2.423000000    -3.677000000
H    -2.137000000     2.614000000    -3.452000000
H    -0.744000000     3.206000000    -3.410000000
O    -3.513000000    -2.763000000    -1.365000000
H    -3.227000000    -2.714000000    -0.453000000
H    -3.746000000    -1.863000000    -1.592000000
O    -7.695000000     0.011000000     1.472000000
H    -7.124000000     0.370000000     0.793000000
H    -7.724000000     0.691000000     2.144000000
O     1.602000000     3.407000000    -1.084000000
H     1.271000000     2.510000000    -1.137000000
H     1.887000000     3.610000000    -1.974000000
O     0.904000000    -1.039000000    -5.251000000
H     1.360000000    -1.844000000    -5.497000000
H     0.135000000    -1.337000000    -4.765000000
O    -7.018000000    -2.581000000     0.588000000
H    -7.318000000    -1.874000000     1.159000000
H    -6.114000000    -2.349000000     0.375000000
O     0.456000000    -6.064000000    -1.201000000
H     0.476000000    -5.561000000    -0.387000000
H    -0.200000000    -6.744000000    -1.047000000
O    -0.045000000     5.271000000     1.151000000
H     0.771000000     5.770000000     1.174000000
H     0.226000000     4.377000000     0.944000000
O    -0.455000000    -1.610000000     2.729000000
H    -0.769000000    -2.514000000     2.712000000
H    -0.223000000    -1.420000000     1.820000000
O    -1.314000000    -4.075000000     2.484000000
H    -0.555000000    -4.323000000     1.957000000
H    -1.293000000    -4.672000000     3.231000000
O     4.904000000    -3.391000000     3.887000000
H     5.690000000    -3.106000000     3.421000000
H     4.237000000    -2.748000000     3.649000000
O    -2.701000000     0.008000000    -4.494000000
H    -3.026000000    -0.194000000    -3.617000000
H    -2.770000000     0.961000000    -4.562000000
O    -3.643000000     3.066000000    -3.174000000
H    -4.526000000     3.348000000    -3.414000000
H    -3.730000000     2.741000000    -2.278000000
O    -5.444000000    -2.416000000    -4.481000000
H    -5.531000000    -1.588000000    -4.010000000
H    -5.609000000    -2.190000000    -5.397000000
O    -1.182000000     5.502000000     3.795000000
H    -0.859000000     5.220000000     2.939000000
H    -1.303000000     6.448000000     3.705000000
O    -5.867000000     4.110000000    -1.024000000
H    -5.761000000     4.167000000    -1.973000000
H    -6.571000000     4.727000000    -0.824000000
O    -4.363000000     0.559000000     3.798000000
H    -4.112000000     1.430000000     3.492000000
H    -3.624000000     0.272000000     4.336000000
O     4.828000000     0.382000000     1.306000000
H     4.219000000     0.917000000     0.796000000
H     4.521000000     0.463000000     2.209000000
O     1.482000000     1.253000000    -3.688000000
H     1.343000000     0.564000000    -4.337000000
H     0.600000000     1.530000000    -3.440000000
O     3.236000000    -1.047000000     4.008000000
H     3.403000000    -0.148000000     3.724000000
H     2.520000000    -0.971000000     4.638000000
O    -4.564000000    -1.006000000     1.118000000
H    -4.537000000    -0.336000000     0.435000000
H    -4.498000000    -0.515000000     1.938000000
O     3.454000000     1.544000000     3.304000000
H     2.727000000     2.073000000     2.975000000
H     3.667000000     1.931000000     4.153000000
O    -6.217000000     1.541000000    -0.450000000
H    -6.577000000     2.391000000    -0.702000000
H    -5.282000000     1.610000000    -0.642000000
O     5.931000000    -3.939000000     0.570000000
H     6.658000000    -3.512000000     1.023000000
H     5.178000000    -3.373000000     0.740000000
O     5.119000000     4.005000000     0.923000000
H     5.788000000     3.749000000     1.557000000
H     4.292000000     3.736000000     1.324000000
O    -3.656000000     2.591000000     2.030000000
H    -4.250000000     3.332000000     2.147000000
H    -3.735000000     2.366000000     1.103000000
O     1.193000000    -4.839000000     1.377000000
H     1.476000000    -3.952000000     1.598000000
H     1.999000000    -5.294000000     1.134000000
O     2.597000000     3.562000000     1.692000000
H     2.617000000     4.499000000     1.885000000
H     2.488000000     3.516000000     0.742000000
O    -1.783000000     0.036000000     4.394000000
H    -1.607000000     0.862000000     3.944000000
H    -1.506000000    -0.638000000     3.773000000
O     7.174000000     1.602000000     0.952000000
H     7.165000000     2.035000000     1.805000000
H     6.366000000     1.089000000     0.934000000
O     4.265000000     1.365000000    -2.565000000
H     4.978000000     0.979000000    -3.075000000
H     3.684000000     0.629000000    -2.372000000
O    -2.656000000     5.925000000    -2.479000000
H    -3.008000000     5.117000000    -2.853000000
H    -2.784000000     5.828000000    -1.536000000
O     3.654000000    -6.076000000     1.364000000
H     4.350000000    -5.418000000     1.376000000
H     4.094000000    -6.885000000     1.103000000
O     4.566000000    -1.738000000    -1.372000000
H     5.077000000    -2.463000000    -1.731000000
H     5.198000000    -1.027000000    -1.267000000
O     0.050000000     3.339000000     5.671000000
H    -0.605000000     3.671000000     6.285000000
H    -0.451000000     2.811000000     5.049000000
O     3.843000000    -2.380000000     1.080000000
H     4.066000000    -2.223000000     0.162000000
H     3.547000000    -1.528000000     1.403000000
O    -5.447000000    -0.026000000    -3.176000000
H    -6.143000000     0.554000000    -2.868000000
H    -4.797000000    -0.014000000    -2.473000000
O    -1.479000000     2.756000000     3.513000000
H    -2.162000000     2.618000000     2.857000000
H    -1.485000000     3.700000000     3.670000000
O    -4.006000000    -3.917000000     1.841000000
H    -4.081000000    -2.965000000     1.783000000
H    -3.085000000    -4.072000000     2.051000000
O     1.709000000    -0.841000000     5.997000000
H     0.801000000    -1.016000000     6.243000000
H     2.225000000    -1.168000000     6.734000000
O     7.158000000    -0.215000000    -1.176000000
H     7.525000000     0.253000000    -0.426000000
H     7.920000000    -0.582000000    -1.625000000
O     2.569000000    -6.608000000    -2.964000000
H     2.509000000    -7.153000000    -2.179000000
H     1.786000000    -6.058000000    -2.934000000
O     6.254000000    -3.838000000    -2.140000000
H     7.045000000    -4.344000000    -2.325000000
H     6.058000000    -4.027000000    -1.222000000
O    -1.404000000    -2.437000000    -4.588000000
H    -1.893000000    -1.617000000    -4.664000000
H    -2.069000000    -3.121000000    -4.661000000
O    -4.919000000    -5.174000000    -1.700000000
H    -5.788000000    -4.966000000    -1.358000000
H    -4.452000000    -4.339000000    -1.693000000
O     0.619000000    -4.567000000    -3.340000000
H    -0.006000000    -3.848000000    -3.442000000
H     0.336000000    -5.019000000    -2.545000000
O    -3.328000000    -0.468000000    -7.089000000
H    -4.226000000    -0.136000000    -7.085000000
H    -3.024000000    -0.345000000    -6.190000000
O    -2.843000000     5.824000000     0.235000000
H    -1.943000000     5.548000000     0.411000000
H    -3.192000000     6.062000000     1.094000000
