158
-3035.95644
C    -0.878000000     1.157000000     0.265000000
H    -1.426000000     2.078000000     0.445000000
C     0.362000000     0.892000000     0.823000000
H     0.858000000     1.596000000     1.487000000
C     1.108000000    -0.250000000     0.493000000
H     2.163000000    -0.466000000     0.797000000
C     0.552000000    -1.056000000    -0.446000000
H     1.176000000    -1.909000000    -0.700000000
C    -0.684000000    -0.818000000    -1.030000000
H    -1.047000000    -1.589000000    -1.705000000
C    -1.468000000     0.257000000    -0.596000000
C    -2.753000000     0.528000000    -1.329000000
O    -3.661000000     1.150000000    -0.832000000
O    -2.915000000    -0.060000000    -2.406000000
O    -0.758000000     2.622000000    -5.190000000
H    -1.661000000     2.427000000    -4.942000000
H    -0.341000000     2.902000000    -4.375000000
O    -3.547000000    -2.625000000    -1.174000000
H    -4.329000000    -2.904000000    -0.697000000
H    -3.740000000    -1.728000000    -1.447000000
O     0.531000000     2.115000000    -2.519000000
H     1.149000000     1.389000000    -2.437000000
H    -0.331000000     1.699000000    -2.500000000
O     1.067000000    -1.774000000    -6.506000000
H     0.944000000    -2.414000000    -5.805000000
H     0.596000000    -2.143000000    -7.253000000
O    -2.611000000    -3.319000000     2.036000000
H    -2.325000000    -3.608000000     1.169000000
H    -2.022000000    -2.598000000     2.255000000
O    -0.084000000     4.933000000    -1.298000000
H     0.742000000     5.289000000    -0.969000000
H     0.174000000     4.167000000    -1.811000000
O    -0.782000000    -1.506000000     2.502000000
H    -0.468000000    -0.758000000     1.995000000
H    -0.047000000    -2.120000000     2.504000000
O    -0.141000000    -5.424000000     2.470000000
H     0.576000000    -5.012000000     1.989000000
H    -0.923000000    -5.214000000     1.960000000
O     6.462000000    -3.975000000     2.913000000
H     6.859000000    -4.025000000     2.043000000
H     5.732000000    -3.364000000     2.809000000
O    -1.045000000    -0.756000000    -4.346000000
H    -1.613000000    -0.336000000    -3.700000000
H    -0.193000000    -0.339000000    -4.223000000
O    -3.302000000     1.801000000    -4.450000000
H    -3.868000000     2.446000000    -4.026000000
H    -3.354000000     1.029000000    -3.887000000
O    -5.155000000    -2.590000000    -5.525000000
H    -5.169000000    -1.983000000    -4.785000000
H    -5.092000000    -2.026000000    -6.296000000
O    -0.428000000     4.452000000     1.810000000
H    -0.789000000     4.654000000     0.947000000
H    -0.953000000     4.974000000     2.417000000
O    -4.413000000     4.530000000    -1.809000000
H    -5.023000000     3.792000000    -1.834000000
H    -4.970000000     5.298000000    -1.689000000
O     7.549000000     0.430000000     2.528000000
H     7.061000000     0.556000000     3.341000000
H     7.886000000     1.300000000     2.313000000
O     4.644000000     0.603000000    -0.023000000
H     5.583000000     0.565000000    -0.203000000
H     4.542000000     1.355000000     0.561000000
O     1.873000000    -0.331000000    -2.951000000
H     2.479000000    -0.807000000    -3.518000000
H     2.081000000    -0.635000000    -2.068000000
O     4.713000000    -1.785000000     2.490000000
H     5.123000000    -0.991000000     2.146000000
H     4.003000000    -1.466000000     3.048000000
O    -5.153000000    -0.702000000     0.525000000
H    -5.120000000    -0.380000000     1.426000000
H    -5.064000000     0.084000000    -0.014000000
O     4.738000000     2.692000000     1.917000000
H     3.873000000     3.097000000     1.971000000
H     4.788000000     2.131000000     2.691000000
O     5.565000000     1.372000000     4.210000000
H     6.001000000     2.018000000     4.766000000
H     5.197000000     0.737000000     4.824000000
O    -5.901000000     1.846000000    -2.172000000
H    -6.586000000     2.103000000    -1.554000000
H    -5.264000000     1.371000000    -1.638000000
O     4.256000000    -5.496000000    -0.032000000
H     3.973000000    -6.184000000     0.570000000
H     4.037000000    -4.680000000     0.417000000
O     5.201000000     3.947000000    -0.369000000
H     4.369000000     4.099000000    -0.818000000
H     4.953000000     3.559000000     0.470000000
O    -3.883000000     3.412000000     0.735000000
H    -4.121000000     3.773000000    -0.119000000
H    -3.659000000     2.499000000     0.555000000
O     2.506000000    -3.486000000     1.572000000
H     2.933000000    -2.887000000     0.960000000
H     2.665000000    -3.101000000     2.434000000
O     1.988000000     3.460000000     5.452000000
H     1.476000000     2.891000000     6.026000000
H     2.708000000     3.769000000     6.001000000
O    -7.309000000    -2.659000000    -2.146000000
H    -6.874000000    -1.881000000    -2.496000000
H    -7.497000000    -2.439000000    -1.234000000
O     2.375000000     3.707000000     2.601000000
H     2.119000000     3.631000000     3.520000000
H     1.549000000     3.810000000     2.129000000
O    -7.172000000     3.197000000     0.036000000
H    -7.989000000     3.188000000    -0.462000000
H    -7.147000000     4.065000000     0.440000000
O    -0.259000000    -0.792000000     5.113000000
H    -0.537000000     0.083000000     5.384000000
H    -0.443000000    -0.822000000     4.174000000
O     6.919000000     2.035000000    -1.259000000
H     6.257000000     2.678000000    -1.005000000
H     7.412000000     2.462000000    -1.959000000
O    -2.091000000     4.249000000    -3.289000000
H    -1.444000000     4.819000000    -2.874000000
H    -2.895000000     4.397000000    -2.791000000
O     3.671000000     2.304000000    -2.215000000
H     3.683000000     1.494000000    -1.706000000
H     3.825000000     2.022000000    -3.117000000
O     4.116000000    -1.820000000    -0.920000000
H     4.556000000    -1.003000000    -0.683000000
H     4.629000000    -2.164000000    -1.651000000
O    -4.385000000     3.905000000     3.285000000
H    -3.924000000     3.678000000     2.478000000
H    -3.877000000     4.626000000     3.657000000
O    -5.287000000    -0.899000000    -3.369000000
H    -5.646000000    -0.040000000    -3.147000000
H    -4.357000000    -0.834000000    -3.153000000
O    -2.214000000     1.701000000     4.646000000
H    -3.063000000     2.110000000     4.811000000
H    -1.853000000     2.190000000     3.906000000
O    -1.332000000    -4.632000000    -0.036000000
H    -2.134000000    -5.123000000     0.143000000
H    -1.166000000    -4.775000000    -0.967000000
O     2.667000000    -2.389000000     4.370000000
H     2.236000000    -1.844000000     5.029000000
H     2.976000000    -3.153000000     4.856000000
O     4.137000000    -5.533000000    -3.016000000
H     4.060000000    -5.479000000    -2.064000000
H     3.407000000    -6.090000000    -3.285000000
O    -2.068000000    -3.275000000    -3.691000000
H    -2.837000000    -3.443000000    -3.146000000
H    -2.041000000    -2.323000000    -3.781000000
O     0.403000000    -3.936000000    -4.504000000
H    -0.500000000    -3.728000000    -4.268000000
H     0.638000000    -4.667000000    -3.933000000
O    -6.846000000     2.305000000    -4.776000000
H    -6.195000000     2.924000000    -5.107000000
H    -6.639000000     2.216000000    -3.845000000
O    -6.430000000     1.689000000     2.305000000
H    -5.639000000     2.196000000     2.489000000
H    -6.668000000     1.934000000     1.411000000
O    -1.716000000    -5.784000000    -5.284000000
H    -2.147000000    -5.193000000    -4.667000000
H    -1.035000000    -5.249000000    -5.692000000
O    -1.837000000    -0.156000000    -7.253000000
H    -2.448000000     0.580000000    -7.243000000
H    -1.682000000    -0.353000000    -6.329000000
O    -2.205000000     6.073000000    -0.312000000
H    -2.937000000     5.475000000    -0.162000000
H    -1.577000000     5.559000000    -0.821000000
