158
-3032.23336
C    -1.300000000     0.015000000    -0.659000000
H    -2.265000000    -0.163000000    -1.127000000
C    -0.622000000    -1.113000000    -0.241000000
H    -1.031000000    -2.084000000    -0.506000000
C     0.676000000    -0.984000000     0.223000000
H     1.295000000    -1.811000000     0.527000000
C     1.154000000     0.272000000     0.502000000
H     2.066000000     0.296000000     1.093000000
C     0.442000000     1.431000000     0.194000000
H     0.858000000     2.384000000     0.511000000
C    -0.807000000     1.316000000    -0.385000000
C    -1.667000000     2.478000000    -0.534000000
O    -2.851000000     2.297000000    -0.698000000
O    -1.226000000     3.612000000    -0.675000000
O    -1.882000000     1.067000000    -4.616000000
H    -1.077000000     0.599000000    -4.397000000
H    -1.689000000     1.983000000    -4.413000000
O    -0.135000000    -5.344000000    -1.228000000
H    -1.089000000    -5.364000000    -1.309000000
H     0.134000000    -4.587000000    -1.749000000
O     1.066000000    -6.505000000     2.415000000
H     0.968000000    -6.703000000     1.483000000
H     2.012000000    -6.474000000     2.555000000
O     1.556000000     4.819000000     1.940000000
H     0.672000000     4.804000000     2.308000000
H     2.085000000     4.326000000     2.568000000
O     4.884000000    -0.836000000    -3.429000000
H     3.936000000    -0.940000000    -3.516000000
H     5.133000000    -1.466000000    -2.753000000
O     1.356000000     4.655000000    -0.603000000
H     0.413000000     4.508000000    -0.524000000
H     1.592000000     5.129000000     0.194000000
O    -0.714000000     3.675000000    -3.366000000
H    -0.921000000     3.677000000    -2.431000000
H     0.142000000     4.099000000    -3.423000000
O    -2.611000000    -3.287000000    -3.227000000
H    -2.304000000    -3.407000000    -2.328000000
H    -3.356000000    -3.883000000    -3.308000000
O     4.253000000     3.202000000    -3.270000000
H     3.644000000     3.927000000    -3.130000000
H     4.083000000     2.603000000    -2.543000000
O     2.574000000    -4.668000000     0.193000000
H     1.660000000    -4.703000000    -0.091000000
H     2.536000000    -4.810000000     1.139000000
O     3.518000000     4.295000000     3.737000000
H     3.674000000     4.391000000     4.676000000
H     3.386000000     3.355000000     3.611000000
O     2.325000000     5.414000000    -2.978000000
H     2.015000000     5.188000000    -2.101000000
H     2.143000000     6.350000000    -3.062000000
O    -5.366000000    -2.393000000     0.822000000
H    -6.069000000    -3.037000000     0.906000000
H    -4.717000000    -2.661000000     1.473000000
O    -3.894000000    -4.933000000     1.735000000
H    -3.870000000    -4.007000000     1.976000000
H    -4.791000000    -5.078000000     1.434000000
O    -2.957000000     5.491000000    -0.664000000
H    -2.215000000     6.087000000    -0.563000000
H    -2.559000000     4.623000000    -0.731000000
O    -4.150000000     6.367000000    -2.948000000
H    -3.801000000     6.104000000    -2.096000000
H    -4.525000000     7.234000000    -2.796000000
O    -5.908000000     5.425000000     0.343000000
H    -5.517000000     5.643000000     1.189000000
H    -5.225000000     4.939000000    -0.119000000
O     4.892000000    -4.675000000     3.130000000
H     4.938000000    -4.333000000     4.022000000
H     4.129000000    -4.242000000     2.746000000
O    -3.010000000    -1.389000000    -5.135000000
H    -2.758000000    -0.509000000    -4.854000000
H    -3.106000000    -1.882000000    -4.321000000
O     1.725000000     2.256000000     4.544000000
H     2.130000000     1.408000000     4.365000000
H     0.804000000     2.053000000     4.709000000
O    -1.420000000    -5.449000000     3.162000000
H    -2.128000000    -5.221000000     2.559000000
H    -0.845000000    -6.019000000     2.652000000
O    -5.206000000     0.852000000    -1.412000000
H    -5.951000000     1.050000000    -0.843000000
H    -4.480000000     1.348000000    -1.035000000
O    -1.141000000     2.806000000     4.516000000
H    -1.334000000     2.339000000     3.703000000
H    -1.153000000     3.731000000     4.270000000
O     3.976000000    -2.067000000    -1.016000000
H     3.709000000    -2.643000000    -0.300000000
H     4.122000000    -1.218000000    -0.599000000
O     5.629000000     2.170000000     1.435000000
H     6.465000000     2.270000000     0.979000000
H     4.972000000     2.433000000     0.791000000
O    -5.613000000     1.674000000    -4.175000000
H    -5.308000000     1.457000000    -3.294000000
H    -5.051000000     2.399000000    -4.451000000
O     1.154000000    -0.541000000     4.015000000
H     0.940000000    -1.406000000     4.364000000
H     0.357000000    -0.260000000     3.565000000
O    -0.543000000     6.818000000    -3.348000000
H     0.262000000     7.309000000    -3.515000000
H    -1.016000000     6.844000000    -4.179000000
O     0.019000000    -3.462000000    -3.515000000
H     0.211000000    -4.275000000    -3.984000000
H    -0.929000000    -3.358000000    -3.594000000
O     0.887000000    -7.378000000    -0.060000000
H     0.057000000    -7.848000000    -0.137000000
H     0.799000000    -6.637000000    -0.659000000
O    -1.111000000     0.596000000     2.728000000
H    -1.978000000     0.595000000     2.323000000
H    -0.525000000     0.278000000     2.042000000
O    -1.049000000     7.958000000    -0.717000000
H    -1.146000000     8.876000000    -0.971000000
H    -0.739000000     7.522000000    -1.511000000
O     7.037000000    -2.913000000     1.026000000
H     6.546000000    -2.124000000     1.257000000
H     7.706000000    -2.608000000     0.413000000
O     3.740000000     3.424000000    -0.216000000
H     3.857000000     4.105000000     0.446000000
H     2.866000000     3.585000000    -0.573000000
O     3.043000000    -2.469000000     2.768000000
H     2.716000000    -1.584000000     2.932000000
H     2.342000000    -3.044000000     3.075000000
O     4.269000000     1.677000000     3.822000000
H     5.042000000     1.204000000     4.130000000
H     4.562000000     2.124000000     3.028000000
O     4.662000000    -5.404000000    -1.678000000
H     4.043000000    -5.206000000    -0.976000000
H     5.514000000    -5.441000000    -1.244000000
O     0.314000000    -0.068000000    -3.529000000
H     0.244000000    -0.126000000    -2.577000000
H     0.795000000    -0.856000000    -3.783000000
O    -2.358000000     4.505000000     2.233000000
H    -1.666000000     5.157000000     2.340000000
H    -2.476000000     4.434000000     1.286000000
O    -5.488000000    -1.867000000    -1.822000000
H    -5.662000000    -1.995000000    -0.889000000
H    -5.663000000    -0.939000000    -1.973000000
O    -3.662000000     3.481000000    -3.560000000
H    -3.865000000     4.416000000    -3.550000000
H    -3.193000000     3.329000000    -2.739000000
O     5.356000000    -0.628000000     1.349000000
H     5.381000000     0.310000000     1.538000000
H     5.020000000    -1.025000000     2.153000000
O    -1.312000000     4.275000000    -5.893000000
H    -1.302000000     4.346000000    -4.939000000
H    -0.392000000     4.342000000    -6.149000000
O    -3.833000000     0.414000000     1.947000000
H    -4.213000000     1.291000000     1.890000000
H    -4.379000000    -0.121000000     1.372000000
O    -2.683000000    -4.736000000    -0.649000000
H    -3.050000000    -4.769000000     0.235000000
H    -3.417000000    -4.962000000    -1.221000000
O     2.086000000    -1.841000000    -3.247000000
H     2.602000000    -1.801000000    -2.442000000
H     1.539000000    -2.620000000    -3.142000000
O    -3.726000000    -2.377000000     2.886000000
H    -3.593000000    -2.651000000     3.794000000
H    -3.729000000    -1.420000000     2.922000000
O     0.832000000    -3.505000000     4.073000000
H     0.933000000    -3.923000000     4.928000000
H     0.017000000    -3.866000000     3.725000000
