158
-3006.11569
C     0.575000000     1.107000000    -0.859000000
H     0.720000000     2.018000000    -1.434000000
C    -0.372000000     0.180000000    -1.242000000
H    -0.968000000     0.359000000    -2.134000000
C    -0.761000000    -0.875000000    -0.426000000
H    -1.539000000    -1.573000000    -0.763000000
C    -0.165000000    -1.023000000     0.810000000
H    -0.451000000    -1.834000000     1.475000000
C     0.832000000    -0.077000000     1.229000000
H     1.253000000    -0.172000000     2.227000000
C     1.159000000     0.975000000     0.406000000
C     2.059000000     2.082000000     0.903000000
O     2.582000000     2.924000000     0.191000000
O     2.362000000     2.061000000     2.075000000
O     1.613000000    -2.105000000    -4.605000000
H     0.671000000    -1.986000000    -4.724000000
H     1.730000000    -2.149000000    -3.656000000
O    -3.679000000    -4.399000000     1.841000000
H    -3.925000000    -3.489000000     2.009000000
H    -2.754000000    -4.356000000     1.597000000
O     5.117000000     2.027000000     0.456000000
H     4.286000000     2.410000000     0.737000000
H     5.047000000     1.975000000    -0.497000000
O     3.490000000    -5.132000000     0.942000000
H     4.437000000    -5.182000000     1.072000000
H     3.320000000    -4.204000000     0.779000000
O     3.597000000     0.428000000     3.874000000
H     3.233000000     1.052000000     3.247000000
H     4.135000000     0.962000000     4.459000000
O    -4.638000000    -0.102000000     0.479000000
H    -5.418000000     0.266000000     0.064000000
H    -4.259000000     0.629000000     0.967000000
O    -0.606000000    -5.916000000     3.948000000
H    -0.553000000    -6.761000000     4.393000000
H    -0.238000000    -6.078000000     3.080000000
O    -0.923000000    -1.503000000     4.820000000
H    -1.200000000    -1.204000000     5.686000000
H     0.003000000    -1.264000000     4.769000000
O     7.219000000     2.700000000    -2.443000000
H     7.358000000     3.234000000    -3.225000000
H     6.289000000     2.478000000    -2.467000000
O     4.426000000     1.202000000    -2.226000000
H     3.470000000     1.232000000    -2.276000000
H     4.687000000     0.663000000    -2.972000000
O    -2.669000000    -5.994000000    -4.520000000
H    -2.607000000    -5.499000000    -3.703000000
H    -2.436000000    -5.363000000    -5.201000000
O    -1.039000000     2.667000000    -6.151000000
H    -1.145000000     3.369000000    -6.793000000
H    -0.139000000     2.762000000    -5.839000000
O     1.364000000     5.208000000    -0.741000000
H     0.494000000     5.458000000    -0.431000000
H     1.622000000     4.483000000    -0.172000000
O     1.470000000     2.723000000    -5.293000000
H     1.591000000     1.776000000    -5.348000000
H     2.097000000     3.007000000    -4.627000000
O    -4.430000000     3.435000000    -3.964000000
H    -3.572000000     3.394000000    -3.542000000
H    -4.629000000     4.370000000    -4.013000000
O     1.016000000     5.886000000     5.333000000
H     0.489000000     6.218000000     4.606000000
H     1.106000000     4.950000000     5.155000000
O    -2.215000000    -3.934000000     4.863000000
H    -1.663000000    -4.622000000     4.492000000
H    -1.840000000    -3.119000000     4.529000000
O     1.787000000    -0.910000000     5.572000000
H     1.574000000    -0.363000000     6.328000000
H     2.436000000    -0.403000000     5.084000000
O     2.803000000     7.336000000     1.115000000
H     3.106000000     6.542000000     1.555000000
H     2.318000000     7.017000000     0.354000000
O     3.491000000     4.726000000     2.977000000
H     3.449000000     4.756000000     3.933000000
H     2.878000000     4.033000000     2.732000000
O     6.593000000     1.054000000     2.483000000
H     5.872000000     1.271000000     1.893000000
H     6.487000000     1.654000000     3.221000000
O     3.923000000    -2.370000000    -0.419000000
H     4.750000000    -2.238000000    -0.883000000
H     3.924000000    -1.702000000     0.266000000
O     0.835000000    -4.942000000    -2.670000000
H     0.692000000    -4.398000000    -3.445000000
H    -0.017000000    -4.966000000    -2.234000000
O     6.023000000     2.688000000     4.637000000
H     5.496000000     3.478000000     4.755000000
H     6.061000000     2.293000000     5.508000000
O     4.470000000     3.422000000    -5.037000000
H     3.789000000     2.978000000    -4.531000000
H     4.878000000     4.023000000    -4.413000000
O     3.392000000     2.380000000     6.155000000
H     3.574000000     3.310000000     6.289000000
H     2.516000000     2.360000000     5.772000000
O    -4.684000000    -1.061000000    -4.544000000
H    -4.742000000    -1.430000000    -5.426000000
H    -5.100000000    -0.202000000    -4.617000000
O    -5.388000000    -3.976000000    -0.389000000
H    -4.845000000    -3.287000000    -0.772000000
H    -4.938000000    -4.214000000     0.422000000
O    -1.619000000    -4.925000000    -1.716000000
H    -2.133000000    -5.588000000    -1.255000000
H    -1.895000000    -4.095000000    -1.328000000
O    -1.080000000    -1.453000000    -4.800000000
H    -1.273000000    -1.099000000    -5.668000000
H    -1.834000000    -1.203000000    -4.266000000
O     5.735000000     6.142000000     2.300000000
H     5.727000000     7.024000000     2.673000000
H     5.109000000     5.652000000     2.833000000
O    -2.601000000     0.597000000     2.440000000
H    -1.901000000     0.753000000     3.074000000
H    -2.182000000     0.099000000     1.738000000
O     4.470000000    -1.690000000     2.388000000
H     5.316000000    -1.798000000     2.824000000
H     4.045000000    -0.976000000     2.863000000
O     4.681000000     4.906000000    -0.104000000
H     4.974000000     4.965000000     0.806000000
H     3.902000000     4.352000000    -0.069000000
O     1.231000000     3.197000000     4.505000000
H     0.364000000     2.845000000     4.707000000
H     1.369000000     2.981000000     3.583000000
O    -1.115000000    -4.510000000     1.248000000
H    -0.459000000    -4.089000000     1.804000000
H    -0.749000000    -5.375000000     1.060000000
O    -1.454000000     3.743000000    -3.363000000
H    -1.149000000     3.250000000    -4.125000000
H    -1.278000000     4.658000000    -3.584000000
O    -1.661000000     3.307000000    -0.654000000
H    -1.550000000     3.341000000    -1.605000000
H    -1.157000000     2.541000000    -0.382000000
O     2.730000000     0.405000000    -4.968000000
H     3.646000000     0.138000000    -5.041000000
H     2.268000000    -0.392000000    -4.708000000
O    -1.004000000     1.941000000     4.612000000
H    -1.823000000     2.384000000     4.835000000
H    -0.652000000     1.652000000     5.454000000
O     2.784000000     3.221000000    -2.892000000
H     2.439000000     3.249000000    -1.999000000
H     2.479000000     4.036000000    -3.292000000
O     5.102000000     5.833000000    -3.128000000
H     4.556000000     6.599000000    -3.305000000
H     4.786000000     5.503000000    -2.287000000
O     1.690000000    -1.711000000    -1.936000000
H     2.349000000    -1.736000000    -1.243000000
H     0.924000000    -1.311000000    -1.524000000
O    -4.609000000    -1.752000000     2.841000000
H    -3.902000000    -1.208000000     3.189000000
H    -4.858000000    -1.327000000     2.021000000
O    -6.543000000    -3.547000000     3.049000000
H    -5.898000000    -2.907000000     2.748000000
H    -7.202000000    -3.026000000     3.507000000
O     2.803000000    -3.800000000     3.918000000
H     3.053000000    -4.716000000     3.797000000
H     3.376000000    -3.314000000     3.325000000
O    -4.065000000    -1.927000000    -1.575000000
H    -4.072000000    -1.436000000    -2.397000000
H    -4.516000000    -1.357000000    -0.952000000
O     0.940000000    -4.023000000     5.977000000
H     1.428000000    -3.943000000     5.157000000
H     1.146000000    -3.221000000     6.458000000
