158
-3040.29962
C     0.680000000     0.860000000    -1.030000000
H     1.148000000     1.366000000    -1.870000000
C     0.700000000    -0.547000000    -0.967000000
H     1.128000000    -1.168000000    -1.750000000
C     0.033000000    -1.260000000     0.014000000
H     0.193000000    -2.359000000     0.022000000
C    -0.669000000    -0.588000000     1.009000000
H    -1.222000000    -1.173000000     1.739000000
C    -0.641000000     0.836000000     1.028000000
H    -1.036000000     1.442000000     1.839000000
C    -0.086000000     1.563000000     0.001000000
C    -0.104000000     3.127000000    -0.002000000
O     0.411000000     3.815000000    -0.904000000
O    -0.559000000     3.707000000     0.997000000
O    -0.628000000    -3.954000000    -3.128000000
H    -1.504000000    -4.125000000    -3.472000000
H    -0.512000000    -3.009000000    -3.225000000
O    -2.883000000    -6.135000000     1.033000000
H    -3.084000000    -5.342000000     1.530000000
H    -2.120000000    -5.900000000     0.504000000
O    -5.624000000     1.727000000     0.588000000
H    -6.294000000     1.591000000    -0.082000000
H    -4.876000000     1.210000000     0.288000000
O    -3.889000000    -2.689000000     2.188000000
H    -3.375000000    -2.761000000     1.384000000
H    -3.267000000    -2.371000000     2.842000000
O     0.995000000     0.778000000     4.260000000
H     0.545000000     1.425000000     3.717000000
H     0.289000000     0.301000000     4.697000000
O     4.384000000     0.516000000    -0.044000000
H     5.034000000    -0.142000000     0.204000000
H     3.588000000     0.013000000    -0.217000000
O     3.634000000    -2.809000000    -0.959000000
H     3.730000000    -3.707000000    -0.642000000
H     4.474000000    -2.610000000    -1.372000000
O    -2.923000000     1.192000000    -2.719000000
H    -3.710000000     1.453000000    -3.198000000
H    -2.347000000     1.955000000    -2.771000000
O     0.589000000     6.358000000     0.795000000
H     0.114000000     5.607000000     0.438000000
H     0.162000000     6.535000000     1.634000000
O    -3.275000000     4.639000000     0.560000000
H    -3.829000000     3.869000000     0.687000000
H    -2.383000000     4.293000000     0.550000000
O     2.411000000    -2.656000000     1.758000000
H     1.869000000    -1.976000000     2.157000000
H     2.634000000    -2.310000000     0.895000000
O    -4.485000000     0.115000000     4.875000000
H    -5.011000000     0.368000000     5.634000000
H    -4.661000000     0.794000000     4.225000000
O     2.948000000     3.227000000     1.578000000
H     2.037000000     3.273000000     1.867000000
H     2.894000000     3.037000000     0.642000000
O     0.678000000    -2.442000000    -6.641000000
H     0.010000000    -2.362000000    -5.960000000
H     1.403000000    -1.899000000    -6.330000000
O     0.599000000     7.922000000    -3.208000000
H    -0.197000000     7.758000000    -2.702000000
H     1.216000000     8.285000000    -2.572000000
O     4.224000000    -5.265000000     0.243000000
H     4.720000000    -5.467000000     1.036000000
H     4.630000000    -5.802000000    -0.437000000
O     0.323000000    -6.213000000    -3.662000000
H    -0.029000000    -5.343000000    -3.472000000
H    -0.450000000    -6.751000000    -3.836000000
O     1.034000000    -2.686000000     5.974000000
H     0.239000000    -2.794000000     6.496000000
H     0.722000000    -2.378000000     5.124000000
O     3.662000000     6.826000000     0.310000000
H     2.955000000     6.814000000     0.956000000
H     3.250000000     6.527000000    -0.500000000
O     4.657000000     1.063000000    -5.673000000
H     4.313000000     0.995000000    -4.782000000
H     4.253000000     0.333000000    -6.142000000
O    -0.863000000    -5.466000000    -0.793000000
H    -0.748000000    -5.204000000    -1.707000000
H    -0.105000000    -6.019000000    -0.606000000
O    -3.868000000     5.979000000     3.115000000
H    -3.467000000     5.409000000     2.459000000
H    -4.058000000     5.398000000     3.852000000
O    -0.376000000    -3.829000000     2.352000000
H    -0.221000000    -4.771000000     2.429000000
H     0.490000000    -3.457000000     2.186000000
O     4.441000000    -2.527000000     3.472000000
H     5.106000000    -2.901000000     2.895000000
H     3.740000000    -2.250000000     2.882000000
O     3.416000000     6.446000000    -4.267000000
H     2.854000000     6.290000000    -5.026000000
H     2.963000000     6.019000000    -3.541000000
O    -2.538000000     7.384000000     0.499000000
H    -1.775000000     7.361000000     1.078000000
H    -2.937000000     6.519000000     0.595000000
O    -5.998000000    -2.234000000     0.409000000
H    -5.677000000    -2.295000000     1.309000000
H    -5.583000000    -1.445000000     0.060000000
O     1.043000000     0.233000000    -4.754000000
H     0.414000000     0.658000000    -5.338000000
H     1.748000000     0.873000000    -4.655000000
O    -2.696000000    -3.270000000    -0.347000000
H    -3.101000000    -4.104000000    -0.586000000
H    -1.760000000    -3.465000000    -0.293000000
O    -0.219000000     3.492000000     3.558000000
H    -0.429000000     3.701000000     2.648000000
H    -1.070000000     3.347000000     3.973000000
O    -1.128000000     5.299000000     6.066000000
H    -1.564000000     5.216000000     5.219000000
H    -0.806000000     4.417000000     6.257000000
O    -1.230000000    -1.027000000    -3.765000000
H    -0.296000000    -0.859000000    -3.893000000
H    -1.618000000    -0.157000000    -3.662000000
O     1.506000000    -6.708000000     0.033000000
H     2.095000000    -5.954000000     0.041000000
H     1.842000000    -7.282000000     0.722000000
O    -4.128000000    -0.534000000    -0.864000000
H    -3.895000000    -1.448000000    -1.022000000
H    -3.566000000    -0.037000000    -1.459000000
O     2.215000000    -5.271000000     2.580000000
H     2.662000000    -4.947000000     3.362000000
H     2.452000000    -4.648000000     1.893000000
O    -1.666000000     3.793000000    -2.617000000
H    -1.001000000     3.899000000    -1.937000000
H    -2.324000000     4.458000000    -2.415000000
O    -1.996000000    -2.912000000     4.385000000
H    -2.362000000    -3.759000000     4.641000000
H    -1.389000000    -3.118000000     3.674000000
O     2.698000000    -0.132000000     2.374000000
H     3.225000000     0.603000000     2.060000000
H     2.069000000     0.265000000     2.977000000
O    -5.238000000     2.143000000     3.126000000
H    -5.359000000     1.905000000     2.207000000
H    -6.120000000     2.338000000     3.441000000
O     4.378000000     2.979000000    -1.290000000
H     5.289000000     3.268000000    -1.230000000
H     4.399000000     2.062000000    -1.016000000
O     2.708000000     2.141000000    -3.857000000
H     3.240000000     2.582000000    -3.194000000
H     2.023000000     2.773000000    -4.074000000
O    -1.549000000    -0.294000000     5.072000000
H    -1.819000000    -1.147000000     4.733000000
H    -2.337000000     0.062000000     5.483000000
O     0.528000000     3.804000000    -4.343000000
H    -0.114000000     3.584000000    -3.668000000
H     0.394000000     4.737000000    -4.508000000
O    -2.478000000    -5.713000000     4.511000000
H    -1.868000000    -6.136000000     3.908000000
H    -3.330000000    -6.093000000     4.296000000
O     2.700000000     5.154000000    -1.650000000
H     3.265000000     4.403000000    -1.469000000
H     1.812000000     4.800000000    -1.611000000
O    -0.489000000    -7.259000000     3.146000000
H    -0.300000000    -7.423000000     2.222000000
H     0.156000000    -7.783000000     3.620000000
O     2.612000000     4.999000000     4.313000000
H     3.209000000     4.693000000     4.996000000
H     2.089000000     4.229000000     4.089000000
O    -2.791000000     3.457000000     4.217000000
H    -3.206000000     3.515000000     5.078000000
H    -3.485000000     3.142000000     3.638000000
