158
-3050.27487
C     0.936000000     0.882000000    -0.717000000
H     1.705000000     1.465000000    -1.216000000
C     1.194000000    -0.381000000    -0.335000000
H     2.159000000    -0.775000000    -0.645000000
C     0.223000000    -1.125000000     0.334000000
H     0.463000000    -2.232000000     0.582000000
C    -1.080000000    -0.661000000     0.538000000
H    -1.932000000    -1.274000000     0.822000000
C    -1.319000000     0.660000000     0.209000000
H    -2.261000000     1.126000000     0.488000000
C    -0.280000000     1.426000000    -0.438000000
C    -0.548000000     2.843000000    -0.697000000
O     0.444000000     3.599000000    -0.870000000
O    -1.556000000     3.429000000    -0.388000000
O    -0.733000000    -0.408000000    -3.156000000
H    -0.481000000    -1.142000000    -3.716000000
H    -0.120000000    -0.446000000    -2.421000000
O    -1.436000000    -3.120000000    -1.824000000
H    -2.235000000    -2.718000000    -2.167000000
H    -0.725000000    -2.646000000    -2.254000000
O    -3.277000000     0.956000000    -2.399000000
H    -2.393000000     0.852000000    -2.751000000
H    -3.490000000     0.099000000    -2.030000000
O     2.389000000     7.868000000    -3.677000000
H     1.896000000     7.308000000    -3.077000000
H     2.060000000     8.750000000    -3.507000000
O     0.101000000    -0.034000000     5.338000000
H    -0.639000000     0.477000000     5.010000000
H     0.296000000     0.350000000     6.193000000
O     6.236000000    -1.413000000    -3.839000000
H     6.038000000    -2.310000000    -4.109000000
H     5.494000000    -1.160000000    -3.290000000
O     0.384000000     2.007000000     2.506000000
H     0.123000000     1.501000000     1.738000000
H    -0.378000000     1.975000000     3.085000000
O     4.875000000     3.889000000    -0.223000000
H     4.675000000     4.131000000    -1.127000000
H     4.090000000     3.434000000     0.082000000
O     4.346000000    -0.275000000    -2.055000000
H     4.832000000     0.411000000    -1.597000000
H     3.861000000     0.190000000    -2.737000000
O    -1.152000000     4.668000000    -4.318000000
H    -1.723000000     4.666000000    -3.549000000
H    -1.371000000     3.859000000    -4.781000000
O     0.115000000     5.833000000     0.452000000
H     0.008000000     4.983000000     0.026000000
H     0.446000000     5.623000000     1.326000000
O    -6.131000000     1.261000000    -2.782000000
H    -5.241000000     1.063000000    -2.491000000
H    -6.339000000     2.096000000    -2.363000000
O    -4.210000000     2.770000000     0.048000000
H    -4.551000000     3.626000000    -0.208000000
H    -3.359000000     2.711000000    -0.385000000
O     3.101000000    -1.129000000     2.471000000
H     2.594000000    -0.334000000     2.309000000
H     3.669000000    -1.212000000     1.705000000
O     6.404000000     1.367000000    -0.674000000
H     5.933000000     2.163000000    -0.426000000
H     6.708000000     1.000000000     0.156000000
O     2.997000000     6.797000000    -0.969000000
H     3.833000000     6.334000000    -1.031000000
H     2.394000000     6.274000000    -1.496000000
O     2.662000000    -1.856000000    -4.846000000
H     2.340000000    -0.964000000    -4.978000000
H     3.596000000    -1.806000000    -5.048000000
O     4.086000000    -5.025000000    -2.537000000
H     5.020000000    -4.958000000    -2.336000000
H     3.647000000    -4.744000000    -1.735000000
O    -6.667000000    -0.744000000    -0.180000000
H    -7.092000000    -0.885000000    -1.026000000
H    -5.757000000    -1.005000000    -0.322000000
O    -3.510000000    -2.640000000     4.156000000
H    -3.424000000    -1.949000000     4.813000000
H    -4.270000000    -2.382000000     3.635000000
O    -2.148000000     7.253000000    -0.475000000
H    -1.406000000     6.739000000    -0.155000000
H    -2.467000000     7.718000000     0.298000000
O     1.125000000    -2.550000000    -2.684000000
H     1.885000000    -2.335000000    -3.225000000
H     1.485000000    -3.063000000    -1.960000000
O     0.729000000    -5.988000000     2.987000000
H     0.166000000    -5.213000000     2.970000000
H     1.450000000    -5.747000000     3.569000000
O     2.350000000    -3.348000000     3.948000000
H     2.766000000    -4.056000000     3.456000000
H     2.798000000    -2.556000000     3.653000000
O     3.026000000     5.894000000     1.630000000
H     2.592000000     6.137000000     0.813000000
H     3.296000000     4.985000000     1.497000000
O     0.670000000    -7.085000000     0.131000000
H     0.409000000    -6.218000000    -0.180000000
H     0.838000000    -6.963000000     1.066000000
O     0.076000000    -4.547000000    -0.063000000
H    -0.270000000    -4.521000000     0.829000000
H    -0.507000000    -3.975000000    -0.563000000
O    -2.648000000     4.433000000     1.925000000
H    -2.207000000     4.194000000     1.109000000
H    -3.580000000     4.423000000     1.705000000
O    -1.125000000     1.719000000    -5.298000000
H    -1.022000000     1.519000000    -6.229000000
H    -1.032000000     0.873000000    -4.860000000
O     2.817000000    -3.377000000    -0.245000000
H     2.843000000    -4.111000000     0.369000000
H     2.041000000    -2.879000000     0.011000000
O    -4.723000000     5.446000000    -0.223000000
H    -5.134000000     5.134000000    -1.029000000
H    -5.386000000     6.004000000     0.183000000
O     3.287000000     0.943000000    -4.242000000
H     3.830000000     1.295000000    -4.948000000
H     2.543000000     1.542000000    -4.191000000
O    -4.154000000     3.282000000    -4.604000000
H    -4.900000000     2.729000000    -4.372000000
H    -3.743000000     3.491000000    -3.765000000
O     0.184000000     5.695000000     3.616000000
H    -0.698000000     5.550000000     3.273000000
H     0.046000000     5.953000000     4.528000000
O    -1.223000000    -3.856000000     2.481000000
H    -2.029000000    -3.905000000     1.967000000
H    -1.480000000    -3.407000000     3.287000000
O    -3.737000000     7.724000000    -2.440000000
H    -3.142000000     7.671000000    -3.188000000
H    -3.191000000     7.507000000    -1.684000000
O    -2.795000000     4.938000000    -2.231000000
H    -2.396000000     4.519000000    -1.469000000
H    -3.425000000     5.557000000    -1.861000000
O    -4.136000000    -1.429000000    -1.052000000
H    -3.601000000    -1.956000000    -0.458000000
H    -3.947000000    -1.783000000    -1.921000000
O     2.411000000     3.181000000     1.091000000
H     1.695000000     3.349000000     0.479000000
H     2.002000000     2.702000000     1.812000000
O    -5.524000000     0.885000000     1.832000000
H    -5.921000000     0.195000000     1.300000000
H    -4.993000000     1.388000000     1.214000000
O     4.401000000     4.046000000    -2.993000000
H     4.916000000     3.355000000    -3.408000000
H     3.887000000     4.424000000    -3.707000000
O     1.360000000     2.776000000    -4.588000000
H     1.243000000     3.568000000    -4.064000000
H     0.477000000     2.546000000    -4.876000000
O    -2.439000000     1.968000000     3.480000000
H    -3.145000000     1.440000000     3.108000000
H    -2.459000000     2.782000000     2.978000000
O     0.817000000     5.705000000    -2.494000000
H     0.857000000     4.990000000    -1.858000000
H     0.180000000     5.410000000    -3.145000000
O    -3.345000000    -3.692000000     0.770000000
H    -4.097000000    -4.005000000     1.272000000
H    -3.195000000    -4.374000000     0.115000000
O     3.555000000    -5.185000000     1.807000000
H     4.226000000    -4.813000000     2.380000000
H     4.030000000    -5.799000000     1.248000000
O     0.708000000    -2.469000000     5.958000000
H     0.486000000    -1.583000000     5.669000000
H     1.264000000    -2.816000000     5.261000000
O     4.974000000    -1.825000000    -0.193000000
H     4.918000000    -1.177000000    -0.895000000
H     4.152000000    -2.313000000    -0.251000000
