158
-3034.93602
C    -0.598000000     0.285000000    -1.298000000
H    -1.077000000     0.304000000    -2.274000000
C    -0.592000000    -0.954000000    -0.651000000
H    -1.038000000    -1.802000000    -1.164000000
C     0.059000000    -1.142000000     0.531000000
H     0.016000000    -2.124000000     1.025000000
C     0.543000000     0.022000000     1.168000000
H     0.866000000     0.031000000     2.206000000
C     0.510000000     1.241000000     0.573000000
H     0.879000000     2.085000000     1.150000000
C    -0.005000000     1.427000000    -0.732000000
C     0.077000000     2.773000000    -1.434000000
O    -0.593000000     2.934000000    -2.456000000
O     0.438000000     3.734000000    -0.766000000
O    -3.482000000    -2.116000000     1.649000000
H    -3.261000000    -1.195000000     1.785000000
H    -3.029000000    -2.354000000     0.840000000
O     1.091000000    -5.781000000     2.044000000
H     1.103000000    -5.575000000     2.979000000
H     1.831000000    -5.294000000     1.682000000
O     0.540000000     1.550000000    -4.340000000
H    -0.198000000     1.386000000    -4.926000000
H     0.165000000     2.054000000    -3.617000000
O    -1.872000000    -5.438000000    -2.964000000
H    -1.186000000    -6.105000000    -3.014000000
H    -1.915000000    -5.208000000    -2.036000000
O     5.158000000     3.710000000    -1.569000000
H     4.307000000     3.448000000    -1.217000000
H     5.574000000     4.192000000    -0.854000000
O     1.030000000    -1.249000000     6.498000000
H     1.739000000    -1.824000000     6.208000000
H     1.291000000    -0.378000000     6.199000000
O     5.980000000    -1.256000000    -0.028000000
H     6.528000000    -1.950000000    -0.393000000
H     5.306000000    -1.721000000     0.469000000
O    -3.403000000     1.528000000     4.413000000
H    -2.663000000     1.087000000     4.832000000
H    -3.283000000     1.361000000     3.478000000
O    -2.818000000     0.665000000     1.360000000
H    -3.039000000     1.263000000     0.646000000
H    -1.902000000     0.433000000     1.204000000
O    -2.778000000     3.001000000    -3.611000000
H    -3.094000000     3.856000000    -3.319000000
H    -1.939000000     2.891000000    -3.164000000
O    -4.272000000    -0.315000000    -1.346000000
H    -4.593000000     0.061000000    -0.526000000
H    -4.772000000     0.136000000    -2.027000000
O     2.474000000    -1.693000000     3.999000000
H     2.715000000    -0.769000000     3.932000000
H     3.146000000    -2.153000000     3.496000000
O    -1.611000000    -4.824000000     1.388000000
H    -0.907000000    -5.035000000     2.001000000
H    -1.160000000    -4.601000000     0.573000000
O    -3.874000000    -2.881000000    -1.792000000
H    -4.001000000    -2.967000000    -2.737000000
H    -3.969000000    -1.944000000    -1.621000000
O    -5.797000000    -2.513000000     3.221000000
H    -5.292000000    -2.290000000     2.439000000
H    -5.165000000    -2.931000000     3.805000000
O    -2.249000000    -3.150000000     4.082000000
H    -2.521000000    -3.030000000     3.172000000
H    -1.356000000    -3.490000000     4.022000000
O     2.325000000     4.540000000     0.889000000
H     2.779000000     3.718000000     0.707000000
H     1.457000000     4.425000000     0.503000000
O    -1.554000000    -0.344000000     5.577000000
H    -0.705000000    -0.527000000     5.979000000
H    -1.775000000    -1.149000000     5.107000000
O     1.973000000     6.451000000    -1.239000000
H     1.850000000     5.538000000    -0.979000000
H     1.568000000     6.511000000    -2.105000000
O    -1.760000000     5.940000000     2.164000000
H    -0.936000000     6.417000000     2.067000000
H    -2.410000000     6.619000000     2.345000000
O     1.219000000    -8.271000000     1.243000000
H     1.128000000    -7.397000000     1.624000000
H     0.589000000    -8.808000000     1.724000000
O     2.027000000    -0.634000000    -3.558000000
H     2.249000000    -0.550000000    -2.631000000
H     1.291000000    -0.034000000    -3.683000000
O    -2.377000000     7.708000000    -4.033000000
H    -2.113000000     7.285000000    -4.850000000
H    -2.723000000     6.995000000    -3.496000000
O     0.459000000    -4.017000000     4.222000000
H     1.220000000    -3.441000000     4.147000000
H     0.464000000    -4.301000000     5.136000000
O     3.600000000    -4.370000000     2.624000000
H     3.575000000    -3.898000000     1.792000000
H     4.429000000    -4.848000000     2.603000000
O    -2.183000000     4.956000000    -0.162000000
H    -1.255000000     4.729000000    -0.233000000
H    -2.272000000     5.329000000     0.715000000
O     3.343000000    -5.049000000    -0.597000000
H     3.194000000    -5.945000000    -0.900000000
H     4.209000000    -4.823000000    -0.938000000
O     4.204000000     7.665000000    -0.090000000
H     4.680000000     8.004000000    -0.848000000
H     3.458000000     7.197000000    -0.466000000
O     4.335000000     1.810000000     0.777000000
H     4.237000000     1.107000000     1.418000000
H     4.815000000     2.495000000     1.243000000
O    -2.461000000     4.386000000    -6.353000000
H    -2.412000000     5.342000000    -6.313000000
H    -2.740000000     4.124000000    -5.476000000
O    -3.318000000     5.612000000    -2.752000000
H    -4.221000000     5.641000000    -2.435000000
H    -2.793000000     5.459000000    -1.967000000
O    -3.206000000     2.631000000    -0.776000000
H    -2.813000000     3.483000000    -0.589000000
H    -2.578000000     2.200000000    -1.356000000
O     0.139000000     4.840000000     4.077000000
H     0.564000000     5.584000000     3.650000000
H    -0.524000000     4.551000000     3.449000000
O    -0.100000000    -4.318000000    -0.664000000
H     0.670000000    -4.849000000    -0.462000000
H     0.183000000    -3.748000000    -1.378000000
O     3.380000000     6.608000000     2.512000000
H     3.123000000     5.768000000     2.132000000
H     3.524000000     7.178000000     1.756000000
O    -1.345000000     1.755000000    -6.827000000
H    -1.421000000     1.453000000    -7.733000000
H    -1.471000000     2.702000000    -6.879000000
O     1.180000000     3.604000000    -5.982000000
H     1.201000000     2.980000000    -5.257000000
H     0.912000000     3.082000000    -6.739000000
O    -3.541000000    -5.951000000     3.600000000
H    -2.720000000    -6.221000000     4.010000000
H    -3.307000000    -5.186000000     3.074000000
O    -3.892000000    -4.891000000    -0.092000000
H    -3.775000000    -4.180000000    -0.722000000
H    -3.232000000    -4.726000000     0.581000000
O     3.303000000    -2.228000000     0.666000000
H     2.950000000    -2.800000000    -0.016000000
H     2.609000000    -1.589000000     0.825000000
O     4.049000000     0.148000000     2.722000000
H     4.330000000     0.681000000     3.466000000
H     4.628000000    -0.614000000     2.742000000
O    -3.645000000     0.755000000    -5.159000000
H    -3.639000000    -0.104000000    -5.581000000
H    -2.854000000     1.186000000    -5.483000000
O     0.203000000     5.819000000    -3.334000000
H    -0.074000000     4.904000000    -3.281000000
H     0.727000000     5.865000000    -4.134000000
O     2.429000000     1.251000000     5.871000000
H     3.207000000     1.528000000     5.386000000
H     2.153000000     2.034000000     6.347000000
O    -5.266000000     1.554000000    -3.013000000
H    -4.625000000     1.418000000    -3.711000000
H    -4.849000000     2.183000000    -2.424000000
O     1.063000000     9.214000000    -1.295000000
H     1.181000000     9.494000000    -0.387000000
H     1.323000000     8.293000000    -1.298000000
O     2.917000000     0.237000000    -1.081000000
H     3.302000000     0.766000000    -0.381000000
H     2.005000000     0.525000000    -1.124000000
O     0.919000000    -2.930000000    -2.778000000
H     1.482000000    -2.387000000    -3.331000000
H     0.089000000    -2.974000000    -3.252000000
