158
-3033.98226
C    -0.327000000     0.401000000    -1.330000000
H    -0.596000000     0.522000000    -2.376000000
C     0.103000000    -0.897000000    -0.975000000
H    -0.067000000    -1.769000000    -1.600000000
C     0.469000000    -1.065000000     0.342000000
H     0.733000000    -2.112000000     0.759000000
C     0.239000000    -0.058000000     1.268000000
H     0.517000000    -0.427000000     2.252000000
C    -0.354000000     1.231000000     0.951000000
H    -0.535000000     1.961000000     1.736000000
C    -0.531000000     1.463000000    -0.450000000
C    -0.935000000     2.818000000    -0.906000000
O    -1.087000000     2.904000000    -2.146000000
O    -0.913000000     3.810000000    -0.265000000
O    -2.832000000    -1.052000000     0.962000000
H    -2.389000000    -1.512000000     1.674000000
H    -2.149000000    -0.511000000     0.564000000
O     3.073000000    -4.732000000     2.817000000
H     3.820000000    -4.583000000     3.397000000
H     3.354000000    -4.385000000     1.970000000
O     6.023000000     0.149000000     1.281000000
H     5.448000000    -0.494000000     1.697000000
H     5.460000000     0.604000000     0.655000000
O    -1.139000000     2.427000000    -4.668000000
H    -1.655000000     3.144000000    -5.038000000
H    -1.262000000     2.506000000    -3.722000000
O     0.054000000     4.002000000     3.775000000
H     0.747000000     3.432000000     4.108000000
H     0.515000000     4.776000000     3.452000000
O     0.238000000     0.641000000     4.499000000
H     0.822000000     1.168000000     5.044000000
H    -0.448000000     1.249000000     4.224000000
O     5.634000000    -2.700000000    -1.310000000
H     5.120000000    -2.041000000    -1.776000000
H     6.514000000    -2.621000000    -1.677000000
O    -4.589000000     3.284000000     1.863000000
H    -3.722000000     3.564000000     2.155000000
H    -4.923000000     4.025000000     1.357000000
O    -1.288000000     2.828000000     5.742000000
H    -1.233000000     3.589000000     5.164000000
H    -0.719000000     3.047000000     6.480000000
O    -5.014000000     0.202000000    -0.104000000
H    -5.009000000     0.079000000    -1.054000000
H    -4.195000000    -0.196000000     0.193000000
O    -3.239000000     4.018000000    -3.369000000
H    -2.425000000     3.718000000    -2.965000000
H    -2.964000000     4.418000000    -4.194000000
O     3.439000000    -3.753000000     0.370000000
H     2.616000000    -4.090000000     0.018000000
H     3.911000000    -3.425000000    -0.396000000
O    -2.621000000     4.256000000    -6.034000000
H    -2.309000000     4.113000000    -6.928000000
H    -3.379000000     4.831000000    -6.134000000
O    -1.447000000    -5.737000000    -0.043000000
H    -0.552000000    -5.510000000     0.208000000
H    -1.576000000    -5.306000000    -0.888000000
O    -4.845000000    -0.489000000    -2.766000000
H    -4.327000000     0.013000000    -3.395000000
H    -5.754000000    -0.308000000    -3.006000000
O    -0.988000000    -2.800000000     3.236000000
H    -0.577000000    -3.552000000     2.811000000
H    -1.259000000    -3.128000000     4.093000000
O     1.643000000     4.342000000     0.701000000
H     1.767000000     3.404000000     0.841000000
H     0.776000000     4.412000000     0.300000000
O    -3.796000000     0.876000000     3.119000000
H    -4.192000000     1.597000000     2.630000000
H    -3.544000000     0.242000000     2.449000000
O     1.390000000     7.104000000    -1.755000000
H     1.615000000     7.159000000    -0.826000000
H     1.568000000     6.194000000    -1.991000000
O     0.186000000    -5.300000000     2.325000000
H     1.061000000    -5.058000000     2.627000000
H     0.307000000    -6.146000000     1.894000000
O     1.971000000    -4.602000000     5.537000000
H     2.640000000    -4.519000000     6.216000000
H     1.879000000    -3.719000000     5.181000000
O     1.047000000     0.957000000    -5.386000000
H     0.229000000     1.416000000    -5.194000000
H     1.000000000     0.765000000    -6.322000000
O    -2.644000000     8.369000000    -0.843000000
H    -2.601000000     7.435000000    -1.046000000
H    -1.961000000     8.503000000    -0.185000000
O    -0.932000000     7.335000000    -4.476000000
H    -0.106000000     7.498000000    -4.932000000
H    -0.982000000     6.381000000    -4.406000000
O    -5.410000000     5.149000000    -2.259000000
H    -4.748000000     4.553000000    -2.610000000
H    -5.114000000     5.338000000    -1.368000000
O    -2.148000000    -5.397000000     3.913000000
H    -1.448000000    -5.387000000     3.259000000
H    -1.693000000    -5.502000000     4.748000000
O     1.413000000    -4.804000000    -1.256000000
H     1.123000000    -4.557000000    -2.134000000
H     1.451000000    -5.761000000    -1.277000000
O     2.429000000    -1.271000000    -4.336000000
H     2.582000000    -1.522000000    -5.246000000
H     1.994000000    -0.420000000    -4.392000000
O    -3.580000000     1.239000000    -4.201000000
H    -2.821000000     1.511000000    -4.719000000
H    -3.713000000     1.954000000    -3.578000000
O    -1.464000000     6.004000000    -1.633000000
H    -1.095000000     5.205000000    -1.255000000
H    -0.710000000     6.463000000    -2.004000000
O     3.606000000     1.778000000     1.082000000
H     3.690000000     1.032000000     1.675000000
H     4.038000000     2.499000000     1.541000000
O    -3.841000000     5.437000000     0.250000000
H    -3.435000000     5.760000000     1.055000000
H    -3.107000000     5.131000000    -0.282000000
O    -2.659000000     0.529000000     5.611000000
H    -3.115000000     0.631000000     4.775000000
H    -1.865000000     1.056000000     5.516000000
O    -0.326000000    -1.758000000    -5.412000000
H    -0.223000000    -2.223000000    -6.243000000
H     0.065000000    -0.898000000    -5.569000000
O     6.876000000    -3.097000000     1.099000000
H     7.435000000    -2.349000000     1.310000000
H     6.401000000    -2.827000000     0.314000000
O    -2.139000000     4.378000000     2.177000000
H    -1.606000000     4.272000000     2.965000000
H    -1.504000000     4.428000000     1.463000000
O    -1.400000000    -4.553000000    -2.601000000
H    -0.815000000    -3.952000000    -3.063000000
H    -2.218000000    -4.065000000    -2.504000000
O     2.035000000     6.892000000     1.317000000
H     2.205000000     6.026000000     0.945000000
H     2.330000000     6.824000000     2.225000000
O     3.798000000     2.320000000    -4.531000000
H     3.190000000     1.610000000    -4.325000000
H     3.382000000     2.790000000    -5.253000000
O    -3.653000000    -3.242000000    -2.607000000
H    -3.849000000    -2.448000000    -3.104000000
H    -4.109000000    -3.122000000    -1.774000000
O     4.466000000    -0.670000000    -2.410000000
H     3.874000000    -1.282000000    -2.848000000
H     3.927000000     0.103000000    -2.238000000
O     3.576000000    -1.179000000     1.939000000
H     3.451000000    -1.739000000     1.173000000
H     3.278000000    -1.711000000     2.677000000
O     0.896000000     4.980000000    -3.373000000
H     0.633000000     4.210000000    -2.869000000
H     1.079000000     4.643000000    -4.249000000
O     3.193000000    -0.647000000     6.231000000
H     2.479000000    -1.239000000     5.993000000
H     3.953000000    -0.984000000     5.758000000
O     1.381000000    -1.934000000     4.218000000
H     0.575000000    -2.399000000     3.995000000
H     1.129000000    -1.011000000     4.231000000
O     2.224000000     2.900000000     4.996000000
H     2.110000000     3.045000000     5.935000000
H     3.071000000     2.460000000     4.923000000
O     2.881000000     1.381000000    -1.427000000
H     3.172000000     1.294000000    -0.519000000
H     1.933000000     1.499000000    -1.364000000
O     0.752000000    -3.761000000    -3.829000000
H     0.447000000    -2.922000000    -4.173000000
H     1.665000000    -3.817000000    -4.110000000
