158
-3014.60217
C    -0.753000000     0.539000000    -1.100000000
H    -1.497000000     0.814000000    -1.843000000
C    -0.391000000    -0.805000000    -0.913000000
H    -0.766000000    -1.528000000    -1.633000000
C     0.334000000    -1.129000000     0.203000000
H     0.532000000    -2.101000000     0.531000000
C     0.726000000    -0.138000000     1.080000000
H     1.157000000    -0.502000000     2.009000000
C     0.424000000     1.173000000     0.866000000
H     0.752000000     1.885000000     1.619000000
C    -0.236000000     1.527000000    -0.341000000
C    -0.543000000     2.933000000    -0.669000000
O    -0.790000000     3.183000000    -1.877000000
O    -0.203000000     3.760000000     0.217000000
O     3.426000000     4.461000000    -2.066000000
H     2.727000000     3.999000000    -2.529000000
H     4.135000000     3.821000000    -2.004000000
O     3.066000000    -4.827000000     5.544000000
H     2.492000000    -4.600000000     4.812000000
H     3.526000000    -4.014000000     5.749000000
O    -2.361000000     2.454000000    -3.771000000
H    -1.669000000     2.719000000    -4.378000000
H    -1.976000000     2.571000000    -2.903000000
O    -3.504000000    -6.830000000    -2.246000000
H    -3.237000000    -6.465000000    -3.090000000
H    -3.154000000    -6.217000000    -1.599000000
O    -1.254000000     3.762000000     2.895000000
H    -0.812000000     3.794000000     2.046000000
H    -1.588000000     4.650000000     3.024000000
O    -0.224000000    -7.475000000     2.865000000
H    -0.092000000    -6.581000000     2.550000000
H    -0.740000000    -7.897000000     2.178000000
O     1.430000000     3.311000000     5.673000000
H     1.825000000     3.974000000     6.239000000
H     1.853000000     3.437000000     4.824000000
O     3.691000000    -1.028000000     3.203000000
H     4.035000000    -0.159000000     2.995000000
H     3.837000000    -1.540000000     2.407000000
O    -2.478000000     2.286000000     4.938000000
H    -2.190000000     2.576000000     4.073000000
H    -2.523000000     3.089000000     5.457000000
O    -4.955000000     1.964000000    -2.575000000
H    -4.339000000     2.320000000    -3.215000000
H    -5.121000000     2.689000000    -1.972000000
O     1.471000000    -4.783000000     0.415000000
H     0.578000000    -4.607000000     0.121000000
H     1.824000000    -5.388000000    -0.237000000
O    -3.510000000     5.278000000    -4.784000000
H    -2.717000000     5.100000000    -4.280000000
H    -4.070000000     5.771000000    -4.184000000
O    -4.743000000    -3.432000000     0.118000000
H    -4.659000000    -2.918000000     0.922000000
H    -4.498000000    -2.825000000    -0.581000000
O     3.916000000    -6.076000000     1.624000000
H     3.108000000    -5.596000000     1.805000000
H     4.267000000    -5.665000000     0.834000000
O     0.860000000     7.180000000    -2.054000000
H     1.264000000     7.297000000    -2.914000000
H     1.529000000     6.735000000    -1.533000000
O     2.231000000     5.117000000     0.503000000
H     2.723000000     5.003000000    -0.311000000
H     1.371000000     4.741000000     0.317000000
O    -1.219000000     9.073000000     0.081000000
H    -0.819000000     8.394000000     0.624000000
H    -1.692000000     8.591000000    -0.597000000
O    -0.818000000    -4.624000000     2.696000000
H    -0.902000000    -4.053000000     3.460000000
H    -1.549000000    -4.376000000     2.130000000
O     5.424000000    -5.858000000    -0.839000000
H     6.116000000    -5.389000000    -0.373000000
H     5.052000000    -5.208000000    -1.435000000
O    -0.275000000     3.652000000    -5.504000000
H     0.277000000     3.367000000    -6.233000000
H    -0.444000000     4.578000000    -5.679000000
O     1.002000000    -3.455000000    -6.321000000
H     0.240000000    -4.032000000    -6.265000000
H     1.351000000    -3.433000000    -5.430000000
O    -1.721000000     6.239000000     3.654000000
H    -1.133000000     6.800000000     4.159000000
H    -2.512000000     6.177000000     4.190000000
O    -3.391000000     7.809000000    -1.844000000
H    -4.003000000     7.458000000    -2.491000000
H    -2.760000000     7.103000000    -1.704000000
O    -4.357000000     4.643000000    -0.547000000
H    -4.841000000     5.431000000    -0.792000000
H    -3.458000000     4.945000000    -0.415000000
O    -1.360000000    -3.622000000     5.184000000
H    -1.165000000    -3.225000000     6.033000000
H    -2.188000000    -3.221000000     4.917000000
O    -0.873000000    -5.845000000    -0.851000000
H    -0.567000000    -6.617000000    -1.328000000
H    -1.510000000    -6.187000000    -0.225000000
O     1.988000000    -7.448000000    -0.068000000
H     2.253000000    -8.333000000    -0.320000000
H     2.577000000    -7.218000000     0.652000000
O    -0.735000000    -0.781000000    -4.738000000
H    -0.438000000    -1.690000000    -4.702000000
H     0.039000000    -0.286000000    -5.008000000
O    -3.378000000    -0.599000000    -5.737000000
H    -3.788000000    -1.215000000    -5.130000000
H    -2.482000000    -0.506000000    -5.415000000
O    -3.986000000    -0.023000000    -0.712000000
H    -3.713000000    -0.737000000    -1.288000000
H    -4.241000000     0.681000000    -1.308000000
O    -1.715000000     5.583000000    -2.404000000
H    -0.925000000     6.069000000    -2.166000000
H    -1.482000000     4.665000000    -2.262000000
O     4.702000000     1.623000000     2.481000000
H     5.506000000     1.863000000     2.942000000
H     4.141000000     2.394000000     2.561000000
O     3.084000000     3.894000000     3.240000000
H     3.114000000     4.104000000     2.307000000
H     3.836000000     4.352000000     3.614000000
O    -3.113000000    -5.817000000     0.954000000
H    -3.424000000    -5.965000000     1.847000000
H    -3.819000000    -5.326000000     0.533000000
O     1.662000000    -3.914000000    -3.819000000
H     0.934000000    -3.813000000    -3.206000000
H     2.132000000    -4.687000000    -3.508000000
O     2.307000000    -3.880000000     2.969000000
H     1.992000000    -2.988000000     3.116000000
H     2.039000000    -4.084000000     2.073000000
O    -3.396000000     1.650000000     1.453000000
H    -2.453000000     1.785000000     1.548000000
H    -3.477000000     1.009000000     0.747000000
O    -3.648000000    -2.298000000    -2.203000000
H    -3.214000000    -3.132000000    -2.381000000
H    -4.259000000    -2.185000000    -2.931000000
O    -1.645000000     6.088000000     0.580000000
H    -1.321000000     5.231000000     0.301000000
H    -1.178000000     6.266000000     1.396000000
O     4.193000000    -2.269000000     0.874000000
H     4.492000000    -1.914000000     0.037000000
H     4.738000000    -3.044000000     1.014000000
O     5.286000000     2.488000000    -1.463000000
H     6.130000000     2.280000000    -1.061000000
H     4.662000000     1.913000000    -1.021000000
O     4.646000000    -4.073000000    -2.928000000
H     5.464000000    -3.580000000    -2.857000000
H     4.055000000    -3.490000000    -3.404000000
O     2.109000000     0.199000000    -3.111000000
H     1.312000000    -0.329000000    -3.086000000
H     1.803000000     1.100000000    -3.008000000
O     3.153000000    -0.092000000     5.641000000
H     3.163000000    -0.443000000     4.750000000
H     2.239000000     0.148000000     5.794000000
O     1.233000000     2.943000000    -3.455000000
H     0.613000000     3.199000000    -2.772000000
H     0.765000000     3.105000000    -4.275000000
O     0.674000000     0.876000000     5.896000000
H    -0.233000000     0.944000000     5.597000000
H     0.996000000     1.777000000     5.888000000
O     3.343000000     1.005000000    -0.296000000
H     3.521000000     0.669000000     0.583000000
H     2.422000000     0.797000000    -0.450000000
O    -1.202000000    -4.203000000    -2.902000000
H    -1.780000000    -4.586000000    -3.562000000
H    -1.220000000    -4.826000000    -2.177000000
