158
-3041.14680
C    -0.091000000     0.048000000    -1.530000000
H    -0.340000000     0.112000000    -2.586000000
C    -0.305000000    -1.112000000    -0.751000000
H    -0.623000000    -2.043000000    -1.215000000
C    -0.093000000    -1.085000000     0.605000000
H    -0.070000000    -2.035000000     1.183000000
C     0.229000000     0.063000000     1.257000000
H     0.377000000     0.121000000     2.332000000
C     0.288000000     1.291000000     0.492000000
H     0.414000000     2.270000000     0.946000000
C     0.172000000     1.262000000    -0.908000000
C     0.306000000     2.617000000    -1.635000000
O     0.087000000     2.706000000    -2.857000000
O     0.420000000     3.656000000    -0.986000000
O     3.402000000     3.736000000    -4.035000000
H     3.196000000     4.011000000    -4.928000000
H     3.119000000     2.823000000    -3.994000000
O    -3.546000000    -4.445000000     2.564000000
H    -4.071000000    -4.011000000     1.892000000
H    -3.674000000    -3.912000000     3.349000000
O    -1.992000000     2.097000000    -4.202000000
H    -1.668000000     1.822000000    -5.059000000
H    -1.230000000     2.480000000    -3.768000000
O    -1.962000000     3.664000000     0.631000000
H    -1.304000000     3.872000000    -0.033000000
H    -2.170000000     4.507000000     1.033000000
O     4.000000000    -4.989000000     5.113000000
H     4.154000000    -4.323000000     5.784000000
H     3.173000000    -4.731000000     4.705000000
O     1.461000000     3.061000000     3.279000000
H     2.028000000     2.483000000     2.769000000
H     1.694000000     3.943000000     2.988000000
O     2.081000000    -4.699000000     0.869000000
H     1.900000000    -4.034000000     1.534000000
H     2.291000000    -4.198000000     0.081000000
O    -1.117000000     2.363000000     3.067000000
H    -0.192000000     2.601000000     3.001000000
H    -1.518000000     2.741000000     2.283000000
O    -3.727000000     0.348000000    -5.054000000
H    -2.952000000     0.814000000    -4.741000000
H    -4.303000000     1.038000000    -5.384000000
O    -3.176000000    -4.051000000    -1.817000000
H    -4.046000000    -3.763000000    -1.539000000
H    -3.020000000    -3.584000000    -2.637000000
O    -5.247000000    -3.255000000     0.685000000
H    -5.327000000    -2.311000000     0.546000000
H    -5.620000000    -3.646000000    -0.105000000
O    -5.413000000    -0.710000000    -0.228000000
H    -4.786000000    -0.700000000    -0.951000000
H    -5.050000000    -0.099000000     0.413000000
O     2.782000000     4.879000000    -1.538000000
H     3.026000000     4.304000000    -2.263000000
H     1.891000000     4.613000000    -1.311000000
O     1.108000000    -0.554000000     7.356000000
H     0.859000000     0.014000000     6.626000000
H     0.339000000    -1.104000000     7.504000000
O     0.072000000     6.583000000     3.070000000
H     0.575000000     7.266000000     3.514000000
H     0.700000000     5.873000000     2.934000000
O     0.720000000    -7.005000000     0.198000000
H     1.146000000    -6.239000000     0.583000000
H    -0.181000000    -6.723000000     0.037000000
O    -0.725000000     1.709000000    -6.657000000
H    -0.644000000     0.801000000    -6.950000000
H    -0.718000000     2.222000000    -7.465000000
O    -2.295000000     6.257000000     1.460000000
H    -1.732000000     6.563000000     2.171000000
H    -2.892000000     6.986000000     1.296000000
O    -1.417000000    -6.051000000     3.439000000
H    -1.087000000    -5.162000000     3.572000000
H    -2.222000000    -5.934000000     2.934000000
O     2.663000000     5.356000000     2.397000000
H     2.735000000     6.230000000     2.011000000
H     3.566000000     5.042000000     2.447000000
O    -2.447000000     0.488000000     4.831000000
H    -2.275000000     1.153000000     4.165000000
H    -1.587000000     0.293000000     5.203000000
O    -0.892000000    -6.180000000    -3.345000000
H     0.038000000    -6.018000000    -3.186000000
H    -1.341000000    -5.704000000    -2.647000000
O     1.866000000     7.414000000    -1.066000000
H     2.216000000     6.572000000    -1.358000000
H     0.929000000     7.362000000    -1.253000000
O    -0.595000000    -1.655000000    -4.678000000
H    -1.275000000    -2.304000000    -4.495000000
H     0.210000000    -2.051000000    -4.345000000
O    -2.102000000    -0.991000000    -6.959000000
H    -2.733000000    -0.964000000    -6.240000000
H    -1.268000000    -1.197000000    -6.538000000
O    -3.509000000    -0.034000000    -2.179000000
H    -2.556000000     0.026000000    -2.248000000
H    -3.783000000    -0.447000000    -2.998000000
O     1.825000000     0.130000000    -6.793000000
H     1.735000000     0.059000000    -5.843000000
H     1.269000000    -0.569000000    -7.139000000
O    -1.516000000     5.632000000    -5.932000000
H    -0.745000000     5.909000000    -6.426000000
H    -1.174000000     5.384000000    -5.073000000
O     2.693000000    -0.081000000     3.387000000
H     3.493000000    -0.086000000     3.913000000
H     2.938000000     0.381000000     2.585000000
O     3.223000000     2.535000000     0.899000000
H     3.132000000     3.298000000     0.328000000
H     4.087000000     2.181000000     0.689000000
O    -1.819000000    -6.195000000    -0.451000000
H    -2.444000000    -6.882000000    -0.220000000
H    -2.354000000    -5.408000000    -0.549000000
O    -4.209000000     1.453000000     1.311000000
H    -3.420000000     1.556000000     0.780000000
H    -4.302000000     2.290000000     1.766000000
O     3.794000000    -6.751000000     1.723000000
H     3.189000000    -6.014000000     1.640000000
H     3.696000000    -7.234000000     0.902000000
O    -4.098000000     3.463000000    -2.332000000
H    -3.940000000     2.992000000    -1.514000000
H    -3.409000000     3.157000000    -2.922000000
O    -1.649000000    -1.380000000     7.340000000
H    -1.854000000    -2.158000000     6.822000000
H    -2.285000000    -1.394000000     8.055000000
O    -3.052000000    -3.034000000    -4.228000000
H    -2.924000000    -3.602000000    -4.988000000
H    -3.760000000    -2.445000000    -4.487000000
O    -0.978000000     4.992000000    -3.258000000
H    -0.394000000     4.278000000    -3.002000000
H    -1.020000000     5.555000000    -2.485000000
O    -3.684000000    -2.172000000     4.296000000
H    -3.353000000    -1.328000000     4.605000000
H    -4.565000000    -2.233000000     4.665000000
O     3.358000000    -3.850000000    -1.251000000
H     3.824000000    -4.580000000    -0.842000000
H     3.781000000    -3.743000000    -2.103000000
O    -0.956000000    -3.140000000     4.223000000
H    -1.234000000    -3.439000000     5.088000000
H    -1.700000000    -2.635000000     3.894000000
O     3.530000000     1.235000000    -1.626000000
H     4.203000000     1.788000000    -1.230000000
H     3.321000000     0.590000000    -0.950000000
O     1.559000000    -3.023000000    -3.782000000
H     2.491000000    -2.917000000    -3.594000000
H     1.526000000    -3.697000000    -4.461000000
O     2.095000000     0.918000000    -3.935000000
H     2.567000000     0.689000000    -3.134000000
H     1.438000000     1.554000000    -3.652000000
O     2.171000000    -3.283000000     3.841000000
H     1.331000000    -2.863000000     4.027000000
H     2.789000000    -2.557000000     3.758000000
O    -0.774000000     6.908000000    -1.326000000
H    -0.806000000     6.800000000    -0.375000000
H    -1.641000000     7.240000000    -1.558000000
O     1.112000000     3.474000000    -5.505000000
H     1.066000000     3.672000000    -4.569000000
H     0.399000000     2.853000000    -5.654000000
O     0.748000000     0.771000000     5.174000000
H     0.377000000     1.495000000     4.670000000
H     1.406000000     0.388000000     4.593000000
O     2.850000000    -1.222000000    -0.647000000
H     1.929000000    -1.018000000    -0.486000000
H     2.857000000    -2.156000000    -0.857000000
