158
-3026.06127
C     1.169000000     0.603000000    -0.643000000
H     1.989000000     0.983000000    -1.246000000
C     1.058000000    -0.716000000    -0.346000000
H     1.840000000    -1.390000000    -0.686000000
C    -0.085000000    -1.178000000     0.347000000
H    -0.068000000    -2.257000000     0.655000000
C    -1.162000000    -0.370000000     0.622000000
H    -2.143000000    -0.689000000     0.967000000
C    -1.007000000     1.042000000     0.351000000
H    -1.872000000     1.698000000     0.395000000
C     0.188000000     1.505000000    -0.266000000
C     0.361000000     3.019000000    -0.526000000
O     1.189000000     3.416000000    -1.305000000
O    -0.376000000     3.846000000    -0.069000000
O     5.499000000     6.116000000    -1.529000000
H     4.760000000     5.534000000    -1.703000000
H     5.700000000     6.510000000    -2.378000000
O    -5.013000000    -1.680000000    -0.559000000
H    -5.024000000    -1.445000000     0.369000000
H    -4.235000000    -2.229000000    -0.658000000
O     2.550000000    -1.506000000     5.686000000
H     2.517000000    -1.664000000     4.742000000
H     1.634000000    -1.405000000     5.944000000
O     4.172000000    -0.028000000     1.386000000
H     5.044000000    -0.361000000     1.173000000
H     3.718000000    -0.775000000     1.776000000
O     3.073000000    -5.766000000    -0.459000000
H     2.820000000    -6.240000000    -1.251000000
H     3.038000000    -4.843000000    -0.710000000
O    -2.037000000     2.567000000    -3.702000000
H    -2.525000000     3.068000000    -3.049000000
H    -1.144000000     2.908000000    -3.648000000
O    -1.910000000     5.523000000     1.552000000
H    -1.356000000     4.963000000     1.008000000
H    -2.251000000     4.937000000     2.228000000
O    -0.461000000     6.448000000     3.875000000
H    -0.956000000     5.918000000     3.251000000
H     0.271000000     5.889000000     4.136000000
O    -5.517000000     1.502000000     3.834000000
H    -5.078000000     1.729000000     4.654000000
H    -5.575000000     2.330000000     3.357000000
O     0.656000000    -4.620000000     2.488000000
H    -0.008000000    -4.112000000     2.953000000
H     0.966000000    -5.256000000     3.133000000
O     2.085000000     1.128000000     2.716000000
H     1.974000000     0.275000000     3.138000000
H     2.711000000     0.966000000     2.011000000
O     1.278000000    -1.485000000    -4.455000000
H     1.475000000    -2.349000000    -4.093000000
H     0.571000000    -1.150000000    -3.903000000
O     3.648000000    -6.305000000     2.128000000
H     3.343000000    -6.533000000     1.250000000
H     4.567000000    -6.571000000     2.139000000
O    -4.863000000    -2.847000000    -3.696000000
H    -4.702000000    -2.272000000    -2.948000000
H    -5.065000000    -2.251000000    -4.418000000
O    -5.730000000     1.104000000    -0.867000000
H    -5.357000000     0.278000000    -0.560000000
H    -5.405000000     1.195000000    -1.763000000
O     1.391000000     6.265000000    -0.584000000
H     2.319000000     6.031000000    -0.611000000
H     0.932000000     5.425000000    -0.616000000
O     2.241000000    -3.808000000    -3.551000000
H     2.471000000    -4.721000000    -3.377000000
H     3.008000000    -3.449000000    -3.996000000
O     0.157000000    -5.050000000    -0.095000000
H    -0.273000000    -5.905000000    -0.085000000
H     0.314000000    -4.850000000     0.828000000
O     4.200000000    -3.408000000     2.326000000
H     5.153000000    -3.497000000     2.342000000
H     3.880000000    -4.295000000     2.164000000
O     2.594000000     2.411000000    -4.561000000
H     1.851000000     2.992000000    -4.721000000
H     2.925000000     2.677000000    -3.703000000
O    -3.405000000     6.665000000    -0.561000000
H    -4.114000000     7.221000000    -0.240000000
H    -3.008000000     6.303000000     0.231000000
O    -2.828000000     6.989000000    -3.087000000
H    -2.814000000     7.126000000    -2.140000000
H    -2.398000000     6.143000000    -3.213000000
O     4.653000000     4.442000000     1.599000000
H     4.308000000     3.850000000     0.931000000
H     5.393000000     4.877000000     1.175000000
O    -2.566000000     2.065000000     4.559000000
H    -2.915000000     2.937000000     4.373000000
H    -2.933000000     1.836000000     5.413000000
O    -4.483000000     1.302000000    -3.301000000
H    -3.534000000     1.411000000    -3.359000000
H    -4.835000000     2.181000000    -3.445000000
O    -0.106000000    -1.056000000     6.583000000
H    -0.731000000    -1.213000000     7.291000000
H    -0.642000000    -0.741000000     5.856000000
O    -1.049000000    -0.192000000     3.912000000
H    -1.440000000     0.658000000     4.113000000
H    -1.139000000    -0.278000000     2.963000000
O     0.697000000     4.147000000     2.544000000
H     0.356000000     4.422000000     1.693000000
H     1.130000000     3.311000000     2.371000000
O    -0.998000000    -4.151000000    -2.299000000
H    -0.361000000    -4.554000000    -1.710000000
H    -1.015000000    -4.727000000    -3.064000000
O    -1.025000000    -7.579000000     0.502000000
H    -1.873000000    -8.021000000     0.551000000
H    -0.577000000    -7.832000000     1.309000000
O    -5.091000000     3.838000000    -0.371000000
H    -4.298000000     3.916000000    -0.901000000
H    -5.217000000     2.895000000    -0.266000000
O     3.205000000    -0.090000000    -5.328000000
H     2.408000000    -0.488000000    -4.978000000
H     3.111000000     0.843000000    -5.138000000
O    -0.818000000    -1.526000000    -2.647000000
H    -1.054000000    -2.454000000    -2.660000000
H    -0.611000000    -1.344000000    -1.731000000
O    -0.704000000     7.830000000     0.066000000
H     0.006000000     7.188000000     0.057000000
H    -1.265000000     7.557000000     0.792000000
O    -1.991000000    -4.121000000     6.116000000
H    -2.876000000    -3.864000000     6.375000000
H    -1.832000000    -3.644000000     5.302000000
O    -2.604000000     4.316000000    -1.553000000
H    -1.884000000     4.066000000    -0.973000000
H    -2.884000000     5.172000000    -1.230000000
O    -3.386000000    -3.805000000    -0.627000000
H    -3.975000000    -4.541000000    -0.795000000
H    -2.762000000    -3.827000000    -1.353000000
O     2.124000000    -1.783000000     2.985000000
H     2.771000000    -2.449000000     2.751000000
H     1.303000000    -2.108000000     2.615000000
O    -5.444000000    -1.119000000     2.123000000
H    -6.202000000    -1.518000000     2.550000000
H    -5.425000000    -0.223000000     2.458000000
O     4.473000000     2.354000000    -0.181000000
H     5.428000000     2.286000000    -0.172000000
H     4.174000000     1.588000000     0.309000000
O     4.126000000    -2.396000000    -4.828000000
H     5.043000000    -2.308000000    -5.086000000
H     3.697000000    -1.626000000    -5.202000000
O    -1.446000000     0.070000000    -4.965000000
H    -1.287000000    -0.409000000    -4.152000000
H    -1.621000000     0.968000000    -4.684000000
O     2.458000000     3.161000000     4.494000000
H     2.806000000     3.924000000     4.032000000
H     2.263000000     2.530000000     3.801000000
O     1.024000000     7.964000000    -2.796000000
H     1.168000000     7.449000000    -2.002000000
H     1.484000000     7.481000000    -3.482000000
O    -3.291000000    -2.973000000     2.356000000
H    -3.407000000    -3.398000000     1.506000000
H    -3.967000000    -2.295000000     2.379000000
O     0.613000000     4.436000000    -3.744000000
H     0.868000000     4.219000000    -2.847000000
H     1.102000000     5.234000000    -3.946000000
O     3.537000000     4.385000000    -1.382000000
H     3.828000000     3.511000000    -1.123000000
H     2.584000000     4.314000000    -1.436000000
O    -1.067000000    -2.919000000     3.732000000
H    -1.098000000    -1.985000000     3.941000000
H    -1.894000000    -3.090000000     3.281000000
