158
-3027.79192
C    -0.412000000     1.352000000    -0.227000000
H    -0.792000000     2.350000000    -0.432000000
C    -1.171000000     0.277000000    -0.441000000
H    -2.141000000     0.512000000    -0.873000000
C    -0.640000000    -0.985000000    -0.237000000
H    -1.112000000    -1.841000000    -0.724000000
C     0.510000000    -1.146000000     0.501000000
H     0.856000000    -2.142000000     0.765000000
C     1.329000000    -0.060000000     0.689000000
H     2.223000000    -0.255000000     1.277000000
C     0.916000000     1.212000000     0.257000000
C     1.835000000     2.458000000     0.477000000
O     1.327000000     3.520000000     0.133000000
O     2.776000000     2.263000000     1.211000000
O     1.377000000     2.176000000    -4.473000000
H     2.242000000     1.765000000    -4.476000000
H     1.533000000     3.060000000    -4.141000000
O     0.170000000     7.713000000     0.160000000
H    -0.463000000     8.138000000    -0.419000000
H     1.020000000     7.895000000    -0.239000000
O     4.002000000     1.343000000    -3.663000000
H     3.623000000     0.785000000    -2.983000000
H     4.778000000     1.726000000    -3.253000000
O     2.872000000     2.851000000     5.899000000
H     2.248000000     2.827000000     5.173000000
H     3.535000000     3.483000000     5.622000000
O    -3.512000000    -4.375000000    -2.397000000
H    -3.134000000    -4.009000000    -3.197000000
H    -3.595000000    -5.311000000    -2.578000000
O    -3.668000000    -4.015000000     3.577000000
H    -2.902000000    -4.077000000     3.007000000
H    -4.127000000    -3.231000000     3.277000000
O     0.909000000     3.949000000    -2.540000000
H     0.069000000     3.648000000    -2.887000000
H     0.828000000     3.845000000    -1.592000000
O    -6.587000000    -4.636000000     1.186000000
H    -6.509000000    -4.043000000     1.933000000
H    -5.698000000    -4.703000000     0.838000000
O    -4.609000000     2.035000000    -0.089000000
H    -4.220000000     2.501000000     0.651000000
H    -4.239000000     2.461000000    -0.862000000
O     4.384000000    -2.482000000    -0.278000000
H     4.780000000    -3.350000000    -0.205000000
H     5.047000000    -1.886000000     0.071000000
O     1.202000000    -7.260000000     2.206000000
H     1.588000000    -6.501000000     1.769000000
H     0.328000000    -6.969000000     2.465000000
O    -1.017000000    -4.935000000    -1.039000000
H    -0.886000000    -5.788000000    -1.453000000
H    -1.873000000    -4.644000000    -1.354000000
O    -1.105000000    -5.424000000     2.173000000
H    -1.277000000    -5.258000000     1.247000000
H    -0.984000000    -4.554000000     2.554000000
O    -3.140000000    -0.120000000    -4.050000000
H    -3.680000000    -0.197000000    -4.837000000
H    -3.419000000    -0.848000000    -3.495000000
O     5.187000000     1.173000000     0.421000000
H     5.311000000     1.250000000    -0.525000000
H     4.306000000     1.515000000     0.576000000
O     2.258000000     6.918000000     2.024000000
H     1.458000000     7.120000000     1.537000000
H     2.636000000     6.170000000     1.563000000
O    -4.674000000     2.274000000     2.904000000
H    -3.757000000     2.547000000     2.929000000
H    -5.072000000     2.700000000     3.664000000
O     6.231000000     4.791000000     2.795000000
H     6.173000000     5.714000000     3.043000000
H     6.161000000     4.795000000     1.840000000
O     1.105000000    -2.010000000    -4.477000000
H     1.743000000    -2.714000000    -4.367000000
H     1.306000000    -1.391000000    -3.775000000
O     0.438000000     4.831000000     3.695000000
H     0.005000000     5.365000000     3.029000000
H     1.355000000     4.806000000     3.423000000
O     7.320000000     2.326000000     3.571000000
H     7.961000000     2.824000000     4.079000000
H     6.741000000     2.990000000     3.197000000
O     2.153000000    -4.752000000     1.525000000
H     2.114000000    -3.919000000     1.996000000
H     3.069000000    -5.022000000     1.591000000
O    -1.113000000    -2.765000000     2.863000000
H    -0.176000000    -2.583000000     2.937000000
H    -1.492000000    -1.944000000     2.550000000
O     5.516000000    -1.106000000     2.245000000
H     6.364000000    -1.545000000     2.179000000
H     5.560000000    -0.402000000     1.598000000
O    -2.096000000    -3.856000000    -4.753000000
H    -1.627000000    -3.320000000    -5.392000000
H    -2.335000000    -4.648000000    -5.235000000
O    -0.589000000     5.211000000     1.021000000
H     0.092000000     4.641000000     0.665000000
H    -0.399000000     6.073000000     0.649000000
O    -1.789000000     2.118000000    -3.749000000
H    -2.079000000     1.296000000    -4.144000000
H    -0.858000000     2.172000000    -3.967000000
O    -2.775000000    -0.537000000     2.262000000
H    -1.983000000    -0.442000000     1.733000000
H    -3.490000000    -0.534000000     1.626000000
O     2.344000000    -6.829000000    -1.482000000
H     2.745000000    -6.850000000    -2.351000000
H     1.890000000    -5.986000000    -1.449000000
O    -5.373000000    -2.395000000    -2.435000000
H    -4.810000000    -3.164000000    -2.346000000
H    -5.986000000    -2.461000000    -1.703000000
O    -3.167000000     3.226000000    -1.865000000
H    -2.736000000     4.078000000    -1.799000000
H    -2.706000000     2.778000000    -2.574000000
O    -6.709000000     1.411000000    -1.768000000
H    -6.309000000     1.121000000    -2.588000000
H    -5.983000000     1.439000000    -1.145000000
O     1.510000000    -2.704000000     3.666000000
H     2.312000000    -2.238000000     3.902000000
H     1.463000000    -3.431000000     4.288000000
O    -2.077000000     3.675000000     2.660000000
H    -1.297000000     3.598000000     3.210000000
H    -1.834000000     4.314000000     1.990000000
O     1.340000000    -3.733000000    -1.210000000
H     1.871000000    -3.757000000    -0.414000000
H     0.449000000    -3.909000000    -0.908000000
O     1.679000000     0.780000000     3.621000000
H     1.850000000     1.211000000     2.783000000
H     2.408000000     0.169000000     3.728000000
O     3.278000000     5.278000000     0.002000000
H     2.639000000     4.565000000    -0.014000000
H     4.123000000     4.839000000     0.099000000
O     2.723000000     5.861000000    -2.693000000
H     2.055000000     5.185000000    -2.576000000
H     3.138000000     5.938000000    -1.834000000
O     5.716000000     4.176000000    -0.107000000
H     6.140000000     3.368000000     0.180000000
H     6.066000000     4.332000000    -0.984000000
O     3.834000000    -1.406000000     4.545000000
H     4.097000000    -1.854000000     5.349000000
H     4.492000000    -1.665000000     3.900000000
O    -0.836000000    -1.227000000    -6.373000000
H    -1.678000000    -1.404000000    -5.953000000
H    -0.188000000    -1.395000000    -5.689000000
O     2.519000000    -0.742000000    -1.806000000
H     2.205000000    -0.301000000    -1.017000000
H     2.747000000    -1.624000000    -1.513000000
O     3.436000000     3.930000000     3.354000000
H     3.225000000     3.417000000     2.574000000
H     4.256000000     4.372000000     3.135000000
O    -6.417000000    -0.347000000    -3.824000000
H    -5.857000000    -0.818000000    -3.208000000
H    -6.680000000    -1.010000000    -4.463000000
O    -0.117000000     1.149000000     5.415000000
H     0.540000000     1.026000000     4.729000000
H    -0.280000000     0.268000000     5.751000000
O    -4.782000000    -0.611000000     0.343000000
H    -5.557000000    -0.637000000     0.905000000
H    -4.627000000     0.321000000     0.193000000
O    -4.151000000    -3.471000000     0.224000000
H    -4.245000000    -2.529000000     0.084000000
H    -3.996000000    -3.829000000    -0.650000000
O     2.437000000    -4.173000000    -3.597000000
H     1.871000000    -4.200000000    -2.825000000
H     3.024000000    -4.921000000    -3.489000000
