158
-2983.10204
C     1.004000000    -0.025000000    -1.051000000
H     1.682000000    -0.165000000    -1.889000000
C     0.468000000    -1.158000000    -0.456000000
H     0.641000000    -2.160000000    -0.841000000
C    -0.632000000    -0.979000000     0.439000000
H    -1.179000000    -1.898000000     0.659000000
C    -0.794000000     0.232000000     1.048000000
H    -1.612000000     0.341000000     1.755000000
C    -0.123000000     1.355000000     0.552000000
H    -0.432000000     2.357000000     0.840000000
C     0.802000000     1.228000000    -0.518000000
C     1.452000000     2.534000000    -1.009000000
O     2.354000000     2.490000000    -1.832000000
O     1.411000000     3.574000000    -0.462000000
O     3.307000000     2.557000000    -7.194000000
H     3.233000000     2.490000000    -6.242000000
H     2.421000000     2.764000000    -7.490000000
O     3.740000000    -2.552000000    -2.033000000
H     3.925000000    -2.926000000    -2.894000000
H     3.032000000    -1.927000000    -2.190000000
O    -1.844000000    -5.730000000    -1.971000000
H    -0.966000000    -6.110000000    -1.938000000
H    -2.158000000    -5.931000000    -2.852000000
O     2.006000000    -0.230000000     2.219000000
H     1.444000000    -0.283000000     2.992000000
H     1.417000000     0.036000000     1.513000000
O     2.993000000     1.911000000    -4.333000000
H     2.038000000     1.977000000    -4.344000000
H     3.250000000     2.300000000    -3.497000000
O    -2.668000000    -2.936000000    -2.915000000
H    -2.154000000    -3.735000000    -2.798000000
H    -2.324000000    -2.545000000    -3.718000000
O    -2.609000000    -6.924000000     2.916000000
H    -1.684000000    -6.742000000     3.081000000
H    -2.697000000    -6.875000000     1.964000000
O    -6.033000000     0.987000000     1.635000000
H    -6.578000000     1.253000000     0.894000000
H    -5.631000000     0.166000000     1.353000000
O     4.194000000     4.720000000    -1.509000000
H     3.723000000     5.390000000    -1.013000000
H     3.711000000     3.912000000    -1.339000000
O     6.442000000     3.421000000     0.144000000
H     6.048000000     2.744000000     0.695000000
H     5.700000000     3.938000000    -0.168000000
O     2.388000000     6.105000000    -4.604000000
H     2.282000000     7.038000000    -4.418000000
H     2.958000000     6.077000000    -5.372000000
O    -2.737000000     1.326000000    -4.520000000
H    -3.589000000     1.535000000    -4.135000000
H    -2.297000000     0.798000000    -3.854000000
O     2.521000000    -4.340000000    -0.082000000
H     2.343000000    -4.914000000    -0.827000000
H     3.174000000    -3.721000000    -0.408000000
O    -4.841000000     1.007000000    -2.300000000
H    -4.144000000     0.352000000    -2.327000000
H    -5.644000000     0.509000000    -2.451000000
O    -4.356000000    -2.567000000     5.326000000
H    -3.593000000    -2.008000000     5.470000000
H    -4.019000000    -3.307000000     4.821000000
O     5.620000000    -1.109000000    -0.254000000
H     4.734000000    -1.444000000    -0.392000000
H     6.049000000    -1.209000000    -1.103000000
O     0.261000000    -6.231000000     0.983000000
H     0.867000000    -6.965000000     1.088000000
H     0.557000000    -5.788000000     0.189000000
O    -0.250000000    -5.879000000     3.540000000
H    -0.469000000    -4.969000000     3.740000000
H     0.065000000    -5.857000000     2.637000000
O     1.140000000     5.502000000    -2.403000000
H     1.753000000     5.625000000    -3.128000000
H     1.481000000     4.744000000    -1.928000000
O    -2.042000000    -0.122000000    -2.381000000
H    -2.137000000    -1.074000000    -2.396000000
H    -1.306000000     0.037000000    -1.789000000
O     3.203000000     7.099000000    -0.258000000
H     3.418000000     7.646000000     0.497000000
H     2.381000000     7.460000000    -0.589000000
O    -0.647000000     7.178000000     3.201000000
H    -0.218000000     6.996000000     4.037000000
H    -0.418000000     6.432000000     2.647000000
O     0.884000000    -5.032000000    -4.803000000
H     0.653000000    -5.953000000    -4.681000000
H     1.625000000    -4.891000000    -4.214000000
O    -0.574000000    -3.053000000     4.035000000
H    -1.507000000    -3.252000000     3.955000000
H    -0.489000000    -2.164000000     3.689000000
O    -4.026000000    -5.658000000    -0.526000000
H    -4.556000000    -6.252000000    -1.058000000
H    -3.155000000    -5.695000000    -0.923000000
O     2.876000000    -3.207000000     2.603000000
H     2.723000000    -2.265000000     2.535000000
H     2.576000000    -3.560000000     1.765000000
O     2.443000000     6.778000000     2.855000000
H     2.705000000     6.023000000     2.328000000
H     1.487000000     6.761000000     2.839000000
O    -2.411000000     5.605000000     1.088000000
H    -1.484000000     5.487000000     0.880000000
H    -2.874000000     5.260000000     0.325000000
O     4.767000000     1.905000000     1.521000000
H     4.180000000     1.789000000     2.268000000
H     5.074000000     1.021000000     1.318000000
O    -4.165000000     2.586000000     2.596000000
H    -4.070000000     2.856000000     1.682000000
H    -4.932000000     2.013000000     2.598000000
O    -6.550000000    -1.496000000     0.207000000
H    -7.083000000    -1.931000000     0.873000000
H    -6.406000000    -2.167000000    -0.460000000
O    -3.001000000     4.897000000    -1.926000000
H    -3.278000000     5.725000000    -2.318000000
H    -2.644000000     4.393000000    -2.659000000
O     0.332000000     7.387000000    -0.248000000
H    -0.484000000     7.600000000    -0.701000000
H     0.661000000     6.610000000    -0.701000000
O    -2.535000000     1.428000000     4.730000000
H    -2.963000000     1.831000000     3.974000000
H    -2.576000000     2.098000000     5.413000000
O     0.783000000    -0.473000000     4.663000000
H     1.491000000    -1.038000000     4.973000000
H     0.760000000     0.248000000     5.292000000
O    -0.712000000     3.760000000    -3.764000000
H     0.073000000     3.459000000    -4.222000000
H    -0.377000000     4.248000000    -3.011000000
O    -4.117000000     2.928000000    -0.417000000
H    -4.428000000     2.193000000    -0.945000000
H    -3.843000000     3.584000000    -1.058000000
O     2.237000000    -2.398000000    -5.033000000
H     2.330000000    -3.349000000    -5.076000000
H     1.329000000    -2.234000000    -5.285000000
O     3.301000000     4.252000000     1.262000000
H     2.593000000     4.107000000     0.634000000
H     3.807000000     3.440000000     1.246000000
O     0.327000000     4.906000000     1.965000000
H     0.426000000     4.108000000     2.483000000
H     0.534000000     4.638000000     1.069000000
O     4.109000000    -0.416000000    -5.517000000
H     3.548000000     0.327000000    -5.294000000
H     3.530000000    -1.177000000    -5.466000000
O     6.630000000     4.164000000    -2.886000000
H     7.124000000     4.611000000    -2.199000000
H     5.729000000     4.147000000    -2.561000000
O     2.466000000    -5.920000000    -2.327000000
H     1.980000000    -6.713000000    -2.556000000
H     3.296000000    -6.241000000    -1.975000000
O     0.733000000     3.051000000     3.914000000
H     0.147000000     2.307000000     4.051000000
H     1.010000000     3.303000000     4.795000000
O     2.300000000    -3.677000000     5.242000000
H     2.865000000    -4.045000000     4.563000000
H     1.440000000    -3.606000000     4.827000000
O    -1.974000000    -1.072000000     5.950000000
H    -2.311000000    -0.203000000     5.731000000
H    -1.053000000    -1.044000000     5.688000000
O    -4.847000000    -3.766000000     1.396000000
H    -4.629000000    -4.304000000     0.635000000
H    -4.980000000    -2.888000000     1.039000000
O    -2.933000000    -4.115000000     3.276000000
H    -3.012000000    -5.060000000     3.412000000
H    -3.601000000    -3.911000000     2.621000000
