158
-3045.23485
C    -1.320000000    -0.179000000    -0.780000000
H    -2.238000000    -0.453000000    -1.292000000
C    -0.513000000    -1.187000000    -0.270000000
H    -0.772000000    -2.241000000    -0.337000000
C     0.677000000    -0.908000000     0.417000000
H     1.188000000    -1.724000000     0.901000000
C     1.080000000     0.424000000     0.556000000
H     2.039000000     0.632000000     1.025000000
C     0.318000000     1.419000000    -0.044000000
H     0.700000000     2.430000000     0.076000000
C    -0.923000000     1.171000000    -0.598000000
C    -1.746000000     2.340000000    -1.132000000
O    -2.718000000     2.096000000    -1.849000000
O    -1.356000000     3.458000000    -0.902000000
O    -4.783000000     1.721000000    -4.572000000
H    -4.309000000     0.890000000    -4.607000000
H    -4.154000000     2.340000000    -4.200000000
O     5.316000000     1.460000000    -0.553000000
H     5.092000000     1.282000000     0.361000000
H     4.741000000     0.883000000    -1.057000000
O    -6.344000000     3.654000000    -2.970000000
H    -7.198000000     3.651000000    -3.402000000
H    -5.820000000     3.031000000    -3.473000000
O     4.223000000    -4.345000000     2.836000000
H     4.214000000    -3.663000000     2.165000000
H     3.721000000    -3.974000000     3.562000000
O     2.615000000    -6.438000000     2.290000000
H     3.307000000    -5.778000000     2.336000000
H     3.082000000    -7.273000000     2.267000000
O     4.871000000    -4.897000000     0.008000000
H     4.578000000    -4.116000000     0.477000000
H     4.963000000    -4.612000000    -0.901000000
O    -0.858000000    -5.358000000    -1.125000000
H    -0.877000000    -6.196000000    -0.664000000
H    -0.263000000    -4.814000000    -0.610000000
O     0.611000000    -1.383000000     7.105000000
H     0.549000000    -1.178000000     6.172000000
H     0.985000000    -2.263000000     7.133000000
O    -4.435000000    -1.023000000     2.699000000
H    -4.495000000    -1.063000000     3.654000000
H    -4.523000000    -0.092000000     2.493000000
O     3.593000000     3.897000000    -0.736000000
H     3.718000000     4.747000000    -0.316000000
H     4.380000000     3.401000000    -0.512000000
O    -3.014000000     3.643000000    -3.738000000
H    -2.896000000     4.434000000    -3.213000000
H    -2.871000000     2.924000000    -3.123000000
O    -7.293000000     2.383000000     0.699000000
H    -6.532000000     2.364000000     0.120000000
H    -7.904000000     2.983000000     0.272000000
O    -2.759000000     5.305000000     3.910000000
H    -2.791000000     4.959000000     3.018000000
H    -3.531000000     4.935000000     4.338000000
O     4.866000000    -2.347000000     0.780000000
H     4.660000000    -1.793000000     1.533000000
H     4.836000000    -1.753000000     0.030000000
O    -1.280000000    -0.893000000     2.622000000
H    -1.028000000    -0.960000000     1.701000000
H    -2.166000000    -1.253000000     2.654000000
O    -3.726000000    -0.837000000    -4.527000000
H    -3.586000000    -1.771000000    -4.681000000
H    -3.931000000    -0.776000000    -3.594000000
O    -4.699000000    -0.960000000    -1.884000000
H    -4.511000000    -1.695000000    -1.300000000
H    -5.516000000    -1.203000000    -2.319000000
O    -3.956000000    -2.704000000     0.612000000
H    -4.308000000    -3.558000000     0.861000000
H    -4.184000000    -2.129000000     1.342000000
O     1.803000000    -4.900000000    -0.282000000
H     1.839000000    -5.715000000     0.219000000
H     2.706000000    -4.747000000    -0.557000000
O    -0.352000000     5.441000000    -2.072000000
H    -0.724000000     4.777000000    -1.491000000
H     0.451000000     5.043000000    -2.408000000
O    -4.901000000     1.329000000    -0.328000000
H    -4.019000000     1.562000000    -0.619000000
H    -5.150000000     0.591000000    -0.884000000
O    -4.146000000     1.677000000     2.325000000
H    -4.662000000     2.222000000     2.919000000
H    -4.607000000     1.733000000     1.488000000
O     0.071000000    -5.784000000     3.665000000
H     0.300000000    -4.912000000     3.986000000
H     0.855000000    -6.084000000     3.206000000
O     3.774000000    -3.022000000     5.174000000
H     3.547000000    -3.448000000     6.001000000
H     4.726000000    -3.105000000     5.116000000
O    -3.409000000     7.082000000    -0.504000000
H    -3.489000000     7.999000000    -0.766000000
H    -3.849000000     6.594000000    -1.200000000
O     0.275000000    -3.144000000     4.436000000
H    -0.630000000    -3.005000000     4.715000000
H     0.373000000    -2.595000000     3.659000000
O    -4.172000000    -4.190000000    -3.448000000
H    -4.631000000    -4.708000000    -4.110000000
H    -3.300000000    -4.582000000    -3.399000000
O    -3.831000000     6.321000000    -3.483000000
H    -4.539000000     5.759000000    -3.798000000
H    -3.382000000     6.609000000    -4.278000000
O    -0.312000000     3.850000000     3.896000000
H    -0.756000000     3.023000000     3.710000000
H    -1.021000000     4.469000000     4.070000000
O     1.539000000    -3.892000000     6.989000000
H     1.393000000    -4.658000000     7.544000000
H     1.391000000    -4.210000000     6.098000000
O    -1.098000000     1.324000000    -4.512000000
H    -1.752000000     1.490000000    -3.834000000
H    -0.274000000     1.626000000    -4.129000000
O    -1.545000000     1.780000000     3.047000000
H    -2.474000000     1.731000000     2.820000000
H    -1.218000000     0.891000000     2.913000000
O     1.967000000     3.442000000     5.125000000
H     1.319000000     3.675000000     4.460000000
H     2.796000000     3.772000000     4.779000000
O    -1.447000000     8.110000000    -2.924000000
H    -1.264000000     7.325000000    -2.408000000
H    -2.305000000     7.946000000    -3.314000000
O    -3.766000000    -5.343000000    -0.649000000
H    -4.018000000    -4.538000000    -1.101000000
H    -2.814000000    -5.378000000    -0.735000000
O    -5.738000000     4.838000000    -0.595000000
H    -4.789000000     4.861000000    -0.721000000
H    -6.059000000     4.273000000    -1.298000000
O     1.778000000    -0.285000000    -2.364000000
H     1.814000000     0.605000000    -2.715000000
H     1.385000000    -0.185000000    -1.497000000
O     2.194000000     6.320000000     3.532000000
H     1.719000000     5.882000000     2.826000000
H     1.631000000     6.218000000     4.299000000
O    -2.728000000     4.915000000     1.297000000
H    -3.352000000     5.475000000     0.835000000
H    -2.187000000     4.537000000     0.604000000
O     1.097000000     4.966000000     1.436000000
H     1.724000000     4.242000000     1.430000000
H     0.310000000     4.598000000     1.838000000
O     1.133000000     0.494000000     4.452000000
H     1.894000000     1.057000000     4.588000000
H     0.429000000     1.096000000     4.209000000
O     1.683000000     2.197000000    -3.647000000
H     2.063000000     2.888000000    -3.104000000
H     1.731000000     2.540000000    -4.540000000
O     1.751000000     7.772000000    -2.088000000
H     1.172000000     7.040000000    -1.876000000
H     2.215000000     7.489000000    -2.876000000
O     4.579000000    -0.986000000    -1.664000000
H     4.857000000    -1.786000000    -2.109000000
H     3.723000000    -0.787000000    -2.042000000
O     4.821000000     1.367000000     2.313000000
H     5.333000000     1.595000000     3.090000000
H     4.546000000     0.463000000     2.465000000
O    -1.146000000     4.249000000    -5.727000000
H    -1.806000000     3.952000000    -5.100000000
H    -0.530000000     3.518000000    -5.790000000
O     3.360000000    -1.223000000     3.184000000
H     3.683000000    -1.911000000     3.765000000
H     2.569000000    -0.898000000     3.614000000
O     2.343000000     4.733000000    -2.916000000
H     2.839000000     4.388000000    -2.174000000
H     2.921000000     5.388000000    -3.307000000
