158
-3065.63300
C    -1.358000000    -0.175000000    -0.542000000
H    -2.414000000    -0.205000000    -0.798000000
C    -0.525000000    -1.227000000    -0.181000000
H    -0.770000000    -2.286000000    -0.174000000
C     0.810000000    -0.958000000     0.214000000
H     1.368000000    -1.863000000     0.534000000
C     1.260000000     0.382000000     0.334000000
H     2.285000000     0.634000000     0.594000000
C     0.360000000     1.407000000     0.032000000
H     0.727000000     2.430000000     0.041000000
C    -0.976000000     1.175000000    -0.389000000
C    -1.910000000     2.303000000    -0.744000000
O    -3.105000000     2.134000000    -1.079000000
O    -1.535000000     3.463000000    -0.602000000
O     5.231000000     2.816000000     0.300000000
H     4.603000000     2.943000000     1.011000000
H     4.805000000     3.198000000    -0.467000000
O     5.536000000    -2.046000000     2.937000000
H     5.270000000    -2.148000000     3.851000000
H     5.546000000    -1.099000000     2.794000000
O    -4.332000000     5.155000000     1.094000000
H    -5.093000000     4.697000000     0.736000000
H    -4.009000000     4.578000000     1.786000000
O    -0.202000000     4.529000000    -2.586000000
H    -0.020000000     5.457000000    -2.438000000
H    -0.701000000     4.257000000    -1.815000000
O     0.964000000    -3.027000000    -2.335000000
H     1.778000000    -2.523000000    -2.338000000
H     1.107000000    -3.709000000    -1.679000000
O     3.027000000     5.049000000    -0.492000000
H     2.884000000     5.671000000    -1.205000000
H     2.258000000     5.147000000     0.069000000
O     2.278000000     3.019000000    -2.323000000
H     2.856000000     3.588000000    -1.815000000
H     1.424000000     3.450000000    -2.285000000
O    -6.331000000     0.592000000    -2.814000000
H    -6.837000000    -0.114000000    -3.217000000
H    -5.929000000     1.049000000    -3.553000000
O    -6.021000000    -2.181000000    -0.565000000
H    -5.564000000    -1.907000000     0.230000000
H    -5.458000000    -1.881000000    -1.279000000
O     0.090000000     7.082000000    -2.126000000
H     0.164000000     7.350000000    -3.042000000
H    -0.744000000     7.452000000    -1.835000000
O     2.306000000    -3.227000000     2.952000000
H     1.513000000    -2.883000000     3.364000000
H     3.002000000    -2.641000000     3.248000000
O     3.839000000    -4.756000000     1.360000000
H     4.627000000    -4.912000000     1.880000000
H     3.320000000    -4.149000000     1.887000000
O     1.664000000     1.132000000     4.078000000
H     1.012000000     1.779000000     4.346000000
H     2.323000000     1.639000000     3.604000000
O    -0.253000000    -0.694000000    -3.479000000
H     0.525000000    -0.236000000    -3.797000000
H     0.038000000    -1.131000000    -2.678000000
O    -3.892000000     4.753000000    -1.975000000
H    -4.500000000     4.212000000    -1.470000000
H    -3.034000000     4.359000000    -1.816000000
O    -0.509000000     7.052000000     3.047000000
H    -1.189000000     6.542000000     2.606000000
H    -0.792000000     7.087000000     3.961000000
O     3.988000000    -1.706000000     0.546000000
H     4.514000000    -1.407000000     1.287000000
H     4.143000000    -2.650000000     0.506000000
O    -0.510000000     2.934000000     3.640000000
H    -1.162000000     3.501000000     4.052000000
H    -0.985000000     2.126000000     3.445000000
O    -2.442000000    -4.248000000    -1.169000000
H    -3.323000000    -4.490000000    -1.454000000
H    -1.891000000    -4.981000000    -1.444000000
O    -1.487000000    -3.199000000     3.166000000
H    -2.206000000    -3.091000000     3.789000000
H    -0.758000000    -2.719000000     3.558000000
O     3.360000000     2.763000000     2.421000000
H     2.627000000     3.012000000     1.858000000
H     3.617000000     3.577000000     2.853000000
O     0.409000000    -1.238000000     3.765000000
H     0.898000000    -0.438000000     3.568000000
H     0.568000000    -1.393000000     4.696000000
O    -1.714000000    -3.079000000    -3.789000000
H    -1.791000000    -3.262000000    -2.852000000
H    -0.857000000    -2.663000000    -3.882000000
O     3.266000000    -1.307000000    -2.002000000
H     3.403000000    -1.478000000    -1.070000000
H     2.913000000    -0.418000000    -2.034000000
O    -4.373000000    -2.712000000    -4.695000000
H    -4.178000000    -3.649000000    -4.673000000
H    -3.573000000    -2.293000000    -4.378000000
O    -1.687000000     5.874000000     0.680000000
H    -1.601000000     5.073000000     0.162000000
H    -2.610000000     6.114000000     0.599000000
O    -1.734000000     0.696000000     2.654000000
H    -2.372000000     0.059000000     2.975000000
H    -1.220000000     0.214000000     2.005000000
O    -5.223000000     6.623000000    -3.468000000
H    -4.844000000     7.498000000    -3.379000000
H    -4.584000000     6.042000000    -3.054000000
O     0.954000000     4.729000000     1.663000000
H     0.271000000     5.309000000     1.325000000
H     0.491000000     4.130000000     2.248000000
O     1.560000000    -5.014000000    -0.238000000
H     2.432000000    -5.017000000     0.156000000
H     0.966000000    -5.182000000     0.493000000
O    -1.750000000     5.422000000    -4.977000000
H    -1.239000000     4.792000000    -4.470000000
H    -2.484000000     4.912000000    -5.321000000
O     3.411000000    -1.169000000     4.914000000
H     2.639000000    -1.008000000     5.457000000
H     3.712000000    -0.297000000     4.661000000
O     0.546000000    -6.457000000     3.910000000
H     0.358000000    -6.034000000     3.073000000
H    -0.227000000    -6.280000000     4.447000000
O    -2.389000000     0.953000000    -3.579000000
H    -1.751000000     0.263000000    -3.397000000
H    -2.642000000     1.279000000    -2.715000000
O    -3.557000000    -2.507000000     1.370000000
H    -3.496000000    -3.162000000     0.674000000
H    -2.701000000    -2.532000000     1.797000000
O    -1.540000000     0.166000000    -6.043000000
H    -1.524000000    -0.192000000    -5.155000000
H    -1.178000000     1.048000000    -5.952000000
O    -0.692000000    -5.490000000     1.383000000
H    -0.898000000    -4.557000000     1.316000000
H    -1.534000000    -5.909000000     1.562000000
O    -6.411000000     3.520000000     0.608000000
H    -5.922000000     2.755000000     0.306000000
H    -7.299000000     3.384000000     0.277000000
O     3.033000000    -5.083000000    -2.848000000
H     2.192000000    -5.135000000    -3.301000000
H     3.042000000    -5.846000000    -2.271000000
O     1.496000000    -3.335000000    -4.941000000
H     1.549000000    -4.277000000    -5.099000000
H     1.385000000    -3.256000000    -3.994000000
O    -2.661000000     3.153000000     1.997000000
H    -2.217000000     3.499000000     1.223000000
H    -2.581000000     2.203000000     1.914000000
O    -5.274000000     1.082000000    -0.096000000
H    -5.620000000     0.690000000    -0.898000000
H    -4.459000000     1.503000000    -0.369000000
O     5.076000000    -3.518000000    -3.488000000
H     5.202000000    -2.601000000    -3.245000000
H     4.230000000    -3.754000000    -3.107000000
O     2.002000000     0.929000000    -3.744000000
H     2.425000000     1.155000000    -4.572000000
H     2.095000000     1.715000000    -3.205000000
O    -0.315000000    -6.641000000    -1.433000000
H     0.000000000    -7.052000000    -2.238000000
H     0.415000000    -6.096000000    -1.140000000
O    -3.272000000     2.941000000    -5.496000000
H    -2.890000000     2.264000000    -4.938000000
H    -4.217000000     2.817000000    -5.410000000
O     5.422000000     0.688000000     3.057000000
H     5.004000000     1.242000000     2.399000000
H     5.211000000     1.107000000     3.892000000
O    -6.709000000     0.802000000     2.458000000
H    -7.633000000     0.621000000     2.285000000
H    -6.313000000     0.874000000     1.589000000
