158
-3010.85304
C    -1.418000000    -0.026000000    -0.277000000
H    -2.502000000    -0.089000000    -0.222000000
C    -0.768000000    -0.826000000     0.682000000
H    -1.304000000    -1.458000000     1.385000000
C     0.607000000    -0.712000000     0.794000000
H     1.161000000    -1.437000000     1.350000000
C     1.281000000     0.256000000     0.038000000
H     2.363000000     0.153000000     0.063000000
C     0.593000000     1.090000000    -0.848000000
H     1.152000000     1.804000000    -1.448000000
C    -0.778000000     0.931000000    -1.088000000
C    -1.601000000     1.814000000    -1.930000000
O    -2.808000000     1.612000000    -1.874000000
O    -1.052000000     2.506000000    -2.735000000
O    -5.357000000     3.382000000    -4.924000000
H    -5.762000000     4.209000000    -5.187000000
H    -4.515000000     3.636000000    -4.546000000
O     5.615000000     1.846000000     3.439000000
H     4.979000000     2.434000000     3.846000000
H     5.131000000     1.035000000     3.289000000
O     3.235000000    -5.279000000    -1.982000000
H     2.290000000    -5.269000000    -1.829000000
H     3.324000000    -5.206000000    -2.932000000
O     0.150000000    -2.356000000    -2.082000000
H     0.562000000    -3.043000000    -1.559000000
H     0.670000000    -1.573000000    -1.902000000
O     3.426000000     2.360000000    -1.423000000
H     3.142000000     2.791000000    -0.617000000
H     3.840000000     3.055000000    -1.934000000
O    -3.144000000     4.024000000    -3.496000000
H    -3.021000000     3.255000000    -2.940000000
H    -2.287000000     4.171000000    -3.896000000
O    -6.263000000    -0.628000000    -4.424000000
H    -5.479000000    -0.257000000    -4.017000000
H    -5.929000000    -1.146000000    -5.156000000
O    -5.951000000     1.509000000    -2.125000000
H    -5.278000000     2.013000000    -1.668000000
H    -6.575000000     2.167000000    -2.432000000
O     4.807000000    -1.297000000    -1.596000000
H     4.631000000    -0.367000000    -1.739000000
H     4.452000000    -1.477000000    -0.726000000
O     2.147000000    -4.284000000     4.384000000
H     2.237000000    -3.351000000     4.579000000
H     2.913000000    -4.688000000     4.790000000
O    -3.834000000     1.134000000    -6.694000000
H    -3.780000000     0.869000000    -5.776000000
H    -3.749000000     2.087000000    -6.674000000
O     1.405000000    -1.883000000     5.546000000
H     1.459000000    -1.531000000     4.658000000
H     1.798000000    -1.207000000     6.097000000
O     0.006000000     0.832000000    -4.573000000
H    -0.346000000     1.429000000    -3.913000000
H     0.942000000     0.787000000    -4.380000000
O    -0.723000000     4.424000000    -4.596000000
H     0.134000000     4.818000000    -4.433000000
H    -0.776000000     3.699000000    -3.974000000
O     3.894000000    -0.572000000     3.705000000
H     4.253000000    -1.431000000     3.927000000
H     3.338000000    -0.345000000     4.450000000
O    -2.827000000     2.045000000     2.184000000
H    -2.466000000     1.596000000     2.949000000
H    -3.343000000     1.375000000     1.735000000
O    -3.700000000     0.092000000    -4.140000000
H    -3.318000000     0.641000000    -3.454000000
H    -3.338000000    -0.779000000    -3.978000000
O    -4.681000000     0.353000000     1.068000000
H    -4.888000000     0.094000000     1.966000000
H    -5.038000000    -0.352000000     0.528000000
O    -3.554000000    -2.285000000     3.816000000
H    -4.331000000    -2.073000000     4.334000000
H    -2.858000000    -1.748000000     4.196000000
O     2.347000000     3.741000000     0.889000000
H     2.577000000     4.594000000     1.258000000
H     1.765000000     3.348000000     1.539000000
O     1.707000000    -5.053000000     1.682000000
H     1.501000000    -4.950000000     2.611000000
H     2.644000000    -5.247000000     1.665000000
O    -1.517000000    -1.514000000     6.078000000
H    -0.641000000    -1.887000000     5.975000000
H    -1.597000000    -1.344000000     7.016000000
O     4.291000000    -1.808000000     1.088000000
H     4.609000000    -2.404000000     1.766000000
H     3.978000000    -1.042000000     1.569000000
O    -5.187000000    -3.094000000    -2.471000000
H    -4.353000000    -2.728000000    -2.763000000
H    -5.666000000    -3.277000000    -3.279000000
O     1.303000000     5.345000000    -2.697000000
H     0.587000000     5.221000000    -2.074000000
H     1.194000000     6.243000000    -3.011000000
O     4.480000000    -5.825000000     1.912000000
H     5.022000000    -5.581000000     2.662000000
H     4.984000000    -5.542000000     1.149000000
O    -4.331000000     3.069000000    -0.494000000
H    -3.754000000     2.486000000    -0.987000000
H    -4.822000000     2.486000000     0.085000000
O    -2.437000000     4.590000000     1.475000000
H    -2.553000000     3.640000000     1.500000000
H    -1.770000000     4.767000000     2.139000000
O     5.315000000    -3.137000000     3.616000000
H     5.041000000    -3.955000000     4.031000000
H     6.155000000    -2.930000000     4.026000000
O    -2.521000000     6.150000000    -6.069000000
H    -1.889000000     6.813000000    -5.788000000
H    -2.216000000     5.340000000    -5.660000000
O    -0.058000000    -4.751000000     6.550000000
H     0.491000000    -4.376000000     5.861000000
H     0.542000000    -4.896000000     7.282000000
O    -6.223000000    -0.799000000    -0.990000000
H    -5.754000000    -1.496000000    -1.448000000
H    -6.230000000    -0.069000000    -1.609000000
O    -1.363000000    -1.578000000    -5.848000000
H    -1.268000000    -0.816000000    -5.276000000
H    -0.697000000    -2.193000000    -5.540000000
O    -4.434000000    -2.533000000     1.205000000
H    -3.643000000    -2.192000000     0.787000000
H    -4.302000000    -2.368000000     2.139000000
O     1.150000000     3.071000000     3.509000000
H     1.599000000     3.217000000     4.341000000
H     0.458000000     3.732000000     3.490000000
O     7.192000000    -0.527000000     0.947000000
H     6.785000000    -1.288000000     1.361000000
H     7.755000000    -0.896000000     0.267000000
O     3.590000000    -2.304000000    -4.036000000
H     4.463000000    -2.254000000    -4.424000000
H     3.729000000    -2.114000000    -3.108000000
O    -2.515000000    -2.474000000    -2.961000000
H    -2.437000000    -3.428000000    -2.985000000
H    -1.729000000    -2.180000000    -2.501000000
O    -2.543000000    -5.693000000     0.618000000
H    -2.164000000    -5.603000000     1.492000000
H    -3.469000000    -5.483000000     0.736000000
O    -0.960000000     5.202000000    -1.063000000
H    -0.935000000     4.339000000    -1.478000000
H    -1.603000000     5.112000000    -0.360000000
O    -1.757000000     0.775000000     4.646000000
H    -1.006000000     0.422000000     4.170000000
H    -1.931000000     0.129000000     5.331000000
O     5.525000000    -4.341000000    -0.855000000
H     4.697000000    -4.657000000    -1.217000000
H     5.509000000    -3.397000000    -1.009000000
O    -4.091000000    -5.085000000     3.189000000
H    -4.014000000    -4.281000000     3.701000000
H    -4.957000000    -5.429000000     3.410000000
O     4.082000000     4.636000000    -3.077000000
H     3.908000000     4.434000000    -3.996000000
H     3.223000000     4.845000000    -2.710000000
O     0.742000000    -4.952000000    -0.727000000
H    -0.194000000    -5.122000000    -0.616000000
H     1.106000000    -5.033000000     0.155000000
O    -1.164000000     1.460000000    -7.081000000
H    -0.974000000     1.507000000    -6.144000000
H    -2.095000000     1.245000000    -7.126000000
O     2.907000000     1.118000000    -3.852000000
H     3.708000000     1.232000000    -4.362000000
H     3.010000000     1.713000000    -3.109000000
O     0.566000000     0.373000000     3.424000000
H     0.682000000     1.322000000     3.464000000
H     0.682000000     0.155000000     2.499000000
