158
-3029.76172
C    -1.151000000    -0.432000000    -0.735000000
H    -1.946000000    -0.809000000    -1.374000000
C    -0.094000000    -1.294000000    -0.358000000
H    -0.092000000    -2.355000000    -0.595000000
C     0.882000000    -0.770000000     0.438000000
H     1.667000000    -1.425000000     0.889000000
C     0.894000000     0.655000000     0.675000000
H     1.685000000     1.082000000     1.286000000
C    -0.052000000     1.460000000     0.169000000
H     0.013000000     2.532000000     0.335000000
C    -1.161000000     0.940000000    -0.488000000
C    -2.220000000     1.870000000    -1.111000000
O    -3.054000000     1.344000000    -1.828000000
O    -1.981000000     3.081000000    -1.157000000
O     6.275000000     1.673000000    -1.345000000
H     5.624000000     0.991000000    -1.182000000
H     6.924000000     1.555000000    -0.651000000
O     2.280000000     0.501000000    -2.104000000
H     1.560000000     0.125000000    -1.597000000
H     1.861000000     1.150000000    -2.670000000
O     3.749000000    -2.675000000     1.721000000
H     3.506000000    -3.418000000     2.274000000
H     3.907000000    -1.959000000     2.338000000
O     0.041000000     4.964000000    -2.497000000
H     0.339000000     5.727000000    -2.002000000
H    -0.714000000     4.639000000    -2.006000000
O     1.193000000    -2.852000000    -2.886000000
H     2.063000000    -2.725000000    -2.507000000
H     0.903000000    -3.697000000    -2.541000000
O     1.415000000     4.148000000     2.273000000
H     0.550000000     3.751000000     2.377000000
H     1.807000000     4.099000000     3.145000000
O     2.911000000     4.304000000    -3.253000000
H     2.980000000     4.957000000    -2.556000000
H     2.005000000     3.999000000    -3.207000000
O     6.816000000    -1.602000000     3.232000000
H     6.819000000    -1.804000000     4.167000000
H     6.032000000    -1.068000000     3.105000000
O    -6.467000000    -0.032000000    -3.195000000
H    -6.887000000    -0.335000000    -4.001000000
H    -6.319000000     0.903000000    -3.339000000
O    -4.220000000    -3.686000000    -0.807000000
H    -4.256000000    -3.453000000     0.121000000
H    -4.145000000    -2.848000000    -1.262000000
O     0.339000000     6.890000000    -0.495000000
H     0.852000000     7.625000000    -0.159000000
H    -0.541000000     7.247000000    -0.617000000
O     0.023000000    -4.176000000     4.123000000
H    -0.720000000    -3.884000000     3.594000000
H     0.118000000    -3.501000000     4.795000000
O    -0.316000000    -5.559000000     0.914000000
H     0.463000000    -5.357000000     0.394000000
H    -0.564000000    -4.723000000     1.307000000
O     0.908000000     1.235000000     3.914000000
H     0.254000000     1.916000000     4.072000000
H     1.674000000     1.519000000     4.412000000
O    -0.797000000    -0.858000000    -3.996000000
H    -0.278000000    -0.171000000    -3.579000000
H    -0.195000000    -1.599000000    -4.073000000
O    -3.697000000     4.218000000    -2.579000000
H    -4.453000000     3.631000000    -2.595000000
H    -3.121000000     3.848000000    -1.910000000
O    -1.212000000     6.686000000     2.382000000
H    -1.565000000     5.899000000     1.967000000
H    -0.283000000     6.492000000     2.512000000
O     4.261000000    -0.289000000    -0.405000000
H     4.083000000    -1.174000000    -0.086000000
H     3.487000000    -0.060000000    -0.919000000
O     1.969000000    -3.871000000     0.094000000
H     2.634000000    -3.367000000     0.563000000
H     2.466000000    -4.527000000    -0.394000000
O    -4.662000000     4.070000000     2.014000000
H    -4.335000000     3.433000000     2.649000000
H    -3.949000000     4.701000000     1.918000000
O     5.010000000     5.025000000     3.322000000
H     5.363000000     5.036000000     4.212000000
H     4.294000000     4.389000000     3.357000000
O    -1.377000000    -3.268000000     1.690000000
H    -2.303000000    -3.119000000     1.884000000
H    -1.066000000    -2.429000000     1.351000000
O     3.034000000     2.247000000     5.049000000
H     2.716000000     3.109000000     5.318000000
H     3.791000000     2.084000000     5.611000000
O     2.719000000    -4.674000000     3.218000000
H     2.717000000    -5.523000000     2.775000000
H     1.793000000    -4.443000000     3.296000000
O    -1.357000000    -0.563000000     2.384000000
H    -0.837000000    -0.323000000     1.617000000
H    -0.897000000    -0.163000000     3.121000000
O    -2.795000000    -2.264000000    -5.132000000
H    -1.988000000    -1.783000000    -4.950000000
H    -3.088000000    -2.574000000    -4.275000000
O     3.989000000    -3.461000000    -2.290000000
H     4.691000000    -4.014000000    -1.946000000
H     4.441000000    -2.704000000    -2.662000000
O    -1.736000000     4.215000000     1.464000000
H    -2.207000000     3.454000000     1.805000000
H    -1.553000000     3.994000000     0.551000000
O    -3.688000000     0.847000000     1.984000000
H    -4.373000000     0.267000000     2.319000000
H    -2.923000000     0.281000000     1.885000000
O    -4.323000000     6.661000000    -3.532000000
H    -4.677000000     6.183000000    -4.282000000
H    -3.728000000     6.040000000    -3.112000000
O    -0.613000000     3.491000000     4.622000000
H    -0.207000000     3.294000000     5.466000000
H    -1.231000000     4.197000000     4.813000000
O    -0.726000000    -5.941000000    -1.968000000
H    -0.539000000    -6.114000000    -1.045000000
H    -1.681000000    -5.954000000    -2.026000000
O    -3.202000000     3.682000000    -5.188000000
H    -3.243000000     3.890000000    -4.255000000
H    -2.999000000     2.747000000    -5.216000000
O     1.118000000    -1.341000000     5.023000000
H     1.689000000    -1.151000000     5.767000000
H     1.216000000    -0.584000000     4.446000000
O    -3.130000000     1.105000000    -4.481000000
H    -2.763000000     0.223000000    -4.533000000
H    -3.248000000     1.261000000    -3.544000000
O    -3.753000000     2.564000000     4.087000000
H    -4.525000000     2.204000000     4.524000000
H    -3.557000000     1.935000000     3.392000000
O     4.816000000     1.544000000     1.699000000
H     4.506000000     0.978000000     0.993000000
H     4.348000000     2.369000000     1.569000000
O     6.661000000    -2.408000000    -0.442000000
H     6.183000000    -1.695000000    -0.867000000
H     6.151000000    -3.192000000    -0.644000000
O    -6.205000000     2.860000000    -2.665000000
H    -6.013000000     2.437000000    -1.828000000
H    -6.852000000     3.533000000    -2.450000000
O     0.655000000    -3.099000000    -5.571000000
H     0.217000000    -3.950000000    -5.542000000
H     1.080000000    -3.019000000    -4.718000000
O    -5.227000000     2.317000000    -0.139000000
H    -4.633000000     1.610000000     0.115000000
H    -5.167000000     2.948000000     0.578000000
O    -4.429000000    -1.150000000    -1.969000000
H    -5.228000000    -0.890000000    -2.427000000
H    -3.846000000    -0.396000000    -2.058000000
O     0.341000000     1.893000000    -3.447000000
H     0.046000000     2.208000000    -4.301000000
H    -0.297000000     2.246000000    -2.827000000
O     3.330000000     4.935000000     0.426000000
H     2.516000000     4.914000000     0.929000000
H     4.019000000     4.998000000     1.088000000
O     6.157000000    -4.076000000     2.397000000
H     5.430000000    -3.752000000     1.866000000
H     6.563000000    -3.287000000     2.755000000
O     3.601000000    -4.676000000     5.776000000
H     2.809000000    -4.546000000     6.298000000
H     3.368000000    -4.357000000     4.904000000
O     4.245000000    -0.450000000     3.382000000
H     4.530000000     0.301000000     2.862000000
H     3.699000000    -0.071000000     4.071000000
O    -7.260000000    -1.751000000    -0.546000000
H    -6.803000000    -1.104000000    -1.084000000
H    -7.916000000    -2.129000000    -1.132000000
