158
-3049.97800
C    -1.385000000     0.176000000    -0.390000000
H    -2.465000000     0.236000000    -0.497000000
C    -0.902000000    -0.648000000     0.626000000
H    -1.584000000    -1.212000000     1.257000000
C     0.462000000    -0.726000000     0.931000000
H     0.842000000    -1.393000000     1.709000000
C     1.288000000     0.004000000     0.117000000
H     2.364000000    -0.127000000     0.202000000
C     0.811000000     0.848000000    -0.861000000
H     1.510000000     1.348000000    -1.526000000
C    -0.557000000     0.935000000    -1.193000000
C    -1.099000000     1.781000000    -2.299000000
O    -2.101000000     1.399000000    -2.915000000
O    -0.664000000     2.908000000    -2.510000000
O    -6.396000000     2.924000000    -5.830000000
H    -6.150000000     2.203000000    -6.409000000
H    -5.634000000     3.048000000    -5.264000000
O    -7.046000000     1.059000000    -0.089000000
H    -7.099000000     1.501000000     0.758000000
H    -6.374000000     1.542000000    -0.570000000
O     5.968000000     0.569000000     3.569000000
H     5.184000000     1.112000000     3.481000000
H     5.654000000    -0.327000000     3.440000000
O     2.131000000     3.997000000    -5.264000000
H     2.011000000     4.918000000    -5.494000000
H     1.609000000     3.518000000    -5.907000000
O     0.679000000    -2.148000000    -1.824000000
H     1.046000000    -2.849000000    -1.286000000
H     0.369000000    -1.498000000    -1.193000000
O     5.259000000     2.862000000    -0.450000000
H     4.682000000     2.860000000     0.314000000
H     4.749000000     3.298000000    -1.133000000
O    -4.049000000     3.026000000    -3.909000000
H    -3.416000000     2.324000000    -3.758000000
H    -3.569000000     3.675000000    -4.423000000
O    -4.110000000    -0.321000000    -3.046000000
H    -3.332000000     0.127000000    -2.715000000
H    -3.972000000    -0.373000000    -3.992000000
O     0.039000000    -6.450000000     1.288000000
H    -0.894000000    -6.563000000     1.107000000
H     0.479000000    -6.834000000     0.529000000
O     6.430000000    -1.015000000    -2.589000000
H     7.364000000    -0.832000000    -2.490000000
H     6.106000000    -1.102000000    -1.693000000
O     4.100000000     5.767000000    -1.217000000
H     3.166000000     5.560000000    -1.254000000
H     4.318000000     6.051000000    -2.105000000
O     4.573000000    -3.579000000     3.700000000
H     5.239000000    -3.797000000     4.352000000
H     3.746000000    -3.834000000     4.108000000
O    -3.804000000    -0.766000000    -5.697000000
H    -2.858000000    -0.781000000    -5.556000000
H    -3.994000000    -1.594000000    -6.137000000
O     1.675000000    -0.568000000     4.274000000
H     1.442000000     0.333000000     4.049000000
H     2.474000000    -0.485000000     4.795000000
O     1.365000000    -0.152000000    -4.503000000
H     1.977000000     0.574000000    -4.621000000
H     1.356000000    -0.307000000    -3.558000000
O    -1.145000000     4.165000000    -4.686000000
H    -0.462000000     3.794000000    -5.245000000
H    -0.962000000     3.810000000    -3.816000000
O    -3.570000000     4.261000000     2.644000000
H    -3.494000000     4.484000000     1.716000000
H    -3.101000000     3.431000000     2.730000000
O    -2.146000000     7.477000000    -0.855000000
H    -2.930000000     7.196000000    -1.328000000
H    -1.635000000     6.677000000    -0.741000000
O     4.145000000    -0.987000000     2.192000000
H     4.093000000    -1.846000000     2.611000000
H     3.397000000    -0.503000000     2.543000000
O    -1.951000000     2.199000000     2.877000000
H    -1.521000000     1.924000000     3.687000000
H    -2.597000000     1.514000000     2.705000000
O    -3.883000000    -2.737000000    -1.612000000
H    -4.273000000    -2.066000000    -2.172000000
H    -3.081000000    -2.992000000    -2.068000000
O    -4.173000000     0.529000000     2.406000000
H    -4.677000000     0.397000000     3.208000000
H    -4.433000000    -0.196000000     1.837000000
O    -2.800000000    -3.277000000     3.357000000
H    -3.140000000    -2.875000000     4.156000000
H    -1.944000000    -2.870000000     3.229000000
O     3.895000000     2.411000000     3.688000000
H     3.730000000     2.915000000     2.891000000
H     4.190000000     3.062000000     4.326000000
O     4.049000000    -4.837000000     0.847000000
H     4.240000000    -4.410000000     1.682000000
H     4.557000000    -5.648000000     0.870000000
O    -0.332000000    -2.484000000     4.499000000
H     0.253000000    -1.754000000     4.297000000
H    -0.305000000    -2.557000000     5.453000000
O     5.718000000    -1.625000000    -0.112000000
H     6.284000000    -2.075000000     0.515000000
H     4.905000000    -1.469000000     0.368000000
O     1.743000000     3.971000000    -2.223000000
H     0.948000000     3.494000000    -1.989000000
H     1.560000000     4.329000000    -3.092000000
O    -5.601000000     2.744000000     1.431000000
H    -5.048000000     3.325000000     1.955000000
H    -5.240000000     1.871000000     1.581000000
O    -4.279000000     5.884000000    -2.190000000
H    -4.837000000     6.056000000    -2.949000000
H    -3.833000000     5.064000000    -2.402000000
O    -0.103000000     3.268000000     1.172000000
H     0.309000000     2.559000000     0.679000000
H    -0.924000000     2.892000000     1.491000000
O     2.503000000    -6.761000000     3.209000000
H     2.344000000    -5.893000000     3.579000000
H     1.733000000    -6.935000000     2.668000000
O    -2.315000000     6.261000000    -6.221000000
H    -1.803000000     7.041000000    -6.006000000
H    -2.141000000     5.656000000    -5.500000000
O     1.859000000    -4.352000000     4.769000000
H     1.570000000    -4.482000000     5.672000000
H     1.312000000    -3.638000000     4.442000000
O    -1.258000000    -0.310000000    -4.861000000
H    -0.348000000    -0.053000000    -5.012000000
H    -1.565000000     0.285000000    -4.177000000
O    -4.277000000    -2.068000000     1.208000000
H    -4.083000000    -2.396000000     0.330000000
H    -3.582000000    -2.430000000     1.758000000
O     3.048000000    -3.012000000    -3.305000000
H     2.401000000    -3.698000000    -3.468000000
H     2.574000000    -2.350000000    -2.802000000
O    -1.583000000    -3.332000000    -3.137000000
H    -1.529000000    -4.161000000    -2.661000000
H    -0.883000000    -2.796000000    -2.765000000
O     3.064000000     4.046000000     1.405000000
H     3.300000000     4.943000000     1.640000000
H     2.394000000     4.144000000     0.728000000
O    -1.825000000     4.539000000    -0.948000000
H    -1.615000000     3.908000000    -1.637000000
H    -1.187000000     4.361000000    -0.257000000
O    -6.007000000     2.476000000    -2.175000000
H    -5.121000000     2.704000000    -2.458000000
H    -6.548000000     2.608000000    -2.953000000
O    -0.468000000     2.058000000     5.999000000
H     0.188000000     2.138000000     5.307000000
H    -0.167000000     1.321000000     6.530000000
O     3.749000000     2.607000000    -3.484000000
H     3.652000000     3.110000000    -2.675000000
H     3.262000000     3.108000000    -4.138000000
O     1.500000000    -4.310000000    -0.052000000
H     0.990000000    -4.736000000     0.637000000
H     2.409000000    -4.532000000     0.150000000
O    -3.251000000     2.565000000    -7.021000000
H    -3.821000000     1.874000000    -6.684000000
H    -2.857000000     2.189000000    -7.808000000
O     3.875000000    -0.007000000    -3.213000000
H     4.154000000     0.906000000    -3.290000000
H     4.692000000    -0.505000000    -3.195000000
O     1.197000000     2.041000000     3.974000000
H     2.077000000     2.336000000     4.206000000
H     0.969000000     2.554000000     3.199000000
O     3.832000000    -0.692000000     6.066000000
H     4.691000000    -1.030000000     6.318000000
H     3.763000000     0.149000000     6.518000000
