158
-3051.31240
C     0.882000000     0.124000000     1.267000000
H     1.600000000     0.128000000     2.083000000
C     1.176000000     0.591000000    -0.028000000
H     2.192000000     0.910000000    -0.248000000
C     0.285000000     0.479000000    -1.132000000
H     0.579000000     0.930000000    -2.122000000
C    -0.945000000    -0.141000000    -0.906000000
H    -1.583000000    -0.316000000    -1.769000000
C    -1.258000000    -0.541000000     0.376000000
H    -2.206000000    -1.059000000     0.501000000
C    -0.354000000    -0.433000000     1.412000000
C    -0.726000000    -0.864000000     2.838000000
O    -1.683000000    -1.616000000     3.060000000
O    -0.105000000    -0.486000000     3.824000000
O     4.112000000    -4.088000000     2.396000000
H     3.652000000    -3.906000000     3.216000000
H     4.287000000    -5.028000000     2.422000000
O    -2.756000000    -1.794000000     5.437000000
H    -2.554000000    -1.081000000     6.043000000
H    -2.400000000    -1.503000000     4.597000000
O     3.925000000     2.985000000     0.088000000
H     4.813000000     3.300000000    -0.082000000
H     3.997000000     2.032000000     0.050000000
O     1.573000000     0.017000000     7.048000000
H     1.916000000     0.210000000     6.175000000
H     2.325000000     0.128000000     7.631000000
O    -0.524000000    -3.877000000    -2.332000000
H    -1.374000000    -3.637000000    -1.963000000
H    -0.514000000    -3.466000000    -3.197000000
O     5.034000000    -0.663000000    -5.571000000
H     5.381000000    -0.629000000    -6.462000000
H     4.853000000    -1.590000000    -5.420000000
O    -3.438000000     2.383000000     1.439000000
H    -2.911000000     1.690000000     1.836000000
H    -2.799000000     2.962000000     1.022000000
O    -2.243000000    -4.387000000     5.425000000
H    -2.650000000    -4.587000000     6.268000000
H    -2.631000000    -3.551000000     5.165000000
O    -3.110000000    -5.344000000    -0.513000000
H    -2.577000000    -6.117000000    -0.327000000
H    -2.988000000    -4.780000000     0.251000000
O    -7.553000000    -1.462000000     1.911000000
H    -6.695000000    -1.187000000     1.587000000
H    -7.527000000    -2.418000000     1.876000000
O     1.933000000     4.215000000    -2.094000000
H     2.477000000     3.603000000    -1.599000000
H     2.141000000     4.032000000    -3.011000000
O    -3.645000000     3.490000000    -3.619000000
H    -3.591000000     4.280000000    -3.082000000
H    -4.352000000     2.980000000    -3.224000000
O    -1.241000000     1.878000000    -3.718000000
H    -2.094000000     2.311000000    -3.669000000
H    -1.363000000     1.182000000    -4.363000000
O    -5.723000000     1.318000000     0.201000000
H    -5.593000000     0.386000000     0.380000000
H    -4.889000000     1.725000000     0.434000000
O     2.161000000     0.913000000     4.604000000
H     1.468000000     0.321000000     4.311000000
H     2.107000000     1.659000000     4.007000000
O    -4.803000000    -4.558000000     3.454000000
H    -4.718000000    -5.027000000     4.284000000
H    -5.169000000    -3.708000000     3.696000000
O    -1.560000000     5.904000000     0.012000000
H    -1.057000000     6.170000000     0.781000000
H    -0.991000000     5.283000000    -0.443000000
O    -4.256000000    -0.365000000     2.727000000
H    -4.552000000    -0.748000000     1.901000000
H    -3.460000000    -0.851000000     2.945000000
O     1.520000000     7.150000000    -1.575000000
H     2.434000000     7.430000000    -1.522000000
H     1.567000000     6.216000000    -1.782000000
O    -1.826000000     5.865000000    -4.982000000
H    -1.444000000     4.995000000    -4.871000000
H    -2.035000000     5.918000000    -5.915000000
O     4.213000000    -0.945000000     3.875000000
H     3.743000000    -0.227000000     4.301000000
H     3.693000000    -1.723000000     4.075000000
O     0.017000000    -3.491000000     4.199000000
H    -0.226000000    -2.655000000     3.802000000
H    -0.801000000    -3.829000000     4.565000000
O     0.935000000    -5.109000000     6.297000000
H     0.234000000    -4.779000000     5.734000000
H     0.481000000    -5.467000000     7.059000000
O     5.436000000    -1.898000000    -2.176000000
H     6.284000000    -1.570000000    -1.876000000
H     5.224000000    -2.604000000    -1.565000000
O    -3.774000000    -2.971000000    -2.245000000
H    -4.632000000    -2.915000000    -2.665000000
H    -3.813000000    -3.774000000    -1.726000000
O    -2.798000000    -3.893000000     1.728000000
H    -2.364000000    -3.209000000     2.238000000
H    -3.409000000    -4.299000000     2.343000000
O     4.790000000     2.758000000    -3.068000000
H     4.786000000     2.284000000    -3.900000000
H     4.586000000     2.091000000    -2.412000000
O    -0.714000000     2.866000000     1.233000000
H    -0.493000000     3.284000000     0.401000000
H    -0.346000000     1.985000000     1.163000000
O    -5.736000000    -2.357000000     4.828000000
H    -4.950000000    -2.125000000     5.323000000
H    -6.335000000    -1.625000000     4.972000000
O     1.110000000    -3.352000000    -0.157000000
H     1.226000000    -2.403000000    -0.198000000
H     0.461000000    -3.543000000    -0.834000000
O     2.499000000     2.623000000     2.271000000
H     2.002000000     3.441000000     2.263000000
H     3.056000000     2.675000000     1.494000000
O     2.002000000    -1.811000000    -3.649000000
H     1.480000000    -1.932000000    -4.443000000
H     2.223000000    -0.879000000    -3.648000000
O     5.237000000     0.554000000    -0.776000000
H     5.315000000    -0.068000000    -0.052000000
H     5.295000000     0.013000000    -1.563000000
O    -0.575000000     3.951000000    -1.464000000
H    -0.938000000     3.220000000    -1.964000000
H     0.306000000     4.071000000    -1.819000000
O    -1.267000000     0.435000000     6.172000000
H    -0.887000000     0.072000000     5.372000000
H    -0.516000000     0.583000000     6.748000000
O    -2.245000000     0.215000000    -5.409000000
H    -2.799000000     0.039000000    -6.169000000
H    -2.274000000    -0.594000000    -4.898000000
O     4.009000000    -3.210000000    -4.947000000
H     3.451000000    -3.047000000    -4.187000000
H     3.544000000    -3.882000000    -5.446000000
O    -5.151000000    -1.460000000     0.114000000
H    -6.030000000    -1.753000000    -0.127000000
H    -4.577000000    -1.861000000    -0.539000000
O     1.599000000     1.719000000    -6.734000000
H     2.256000000     2.214000000    -7.223000000
H     0.977000000     2.381000000    -6.431000000
O    -0.151000000     3.379000000    -5.754000000
H    -0.533000000     3.159000000    -4.905000000
H     0.380000000     4.157000000    -5.584000000
O     0.258000000    -4.942000000     1.963000000
H     0.101000000    -4.373000000     2.716000000
H     0.563000000    -4.351000000     1.275000000
O     2.831000000    -3.070000000     4.785000000
H     3.181000000    -3.637000000     5.472000000
H     1.882000000    -3.177000000     4.846000000
O    -5.083000000     1.605000000    -2.696000000
H    -5.235000000     0.784000000    -3.164000000
H    -5.269000000     1.397000000    -1.780000000
O     2.571000000     4.589000000    -5.067000000
H     2.544000000     4.373000000    -5.999000000
H     3.499000000     4.545000000    -4.838000000
O     5.377000000     1.097000000     2.481000000
H     5.289000000     1.937000000     2.932000000
H     5.167000000     0.444000000     3.148000000
O     2.779000000     0.860000000    -4.335000000
H     3.622000000     0.650000000    -4.738000000
H     2.257000000     1.226000000    -5.048000000
O    -3.303000000     2.064000000     5.586000000
H    -2.589000000     2.556000000     5.181000000
H    -2.942000000     1.189000000     5.727000000
O    -2.165000000    -2.246000000    -4.494000000
H    -2.442000000    -2.852000000    -5.181000000
H    -2.866000000    -2.285000000    -3.843000000
