158
-3049.71757
C    -0.234000000    -1.453000000     0.356000000
H    -0.259000000    -2.501000000     0.643000000
C     1.001000000    -0.805000000     0.429000000
H     1.906000000    -1.360000000     0.663000000
C     1.091000000     0.527000000     0.055000000
H     2.081000000     0.943000000     0.050000000
C    -0.071000000     1.206000000    -0.406000000
H    -0.013000000     2.188000000    -0.868000000
C    -1.341000000     0.673000000    -0.337000000
H    -2.246000000     1.197000000    -0.635000000
C    -1.391000000    -0.672000000     0.072000000
C    -2.706000000    -1.427000000     0.002000000
O    -2.716000000    -2.620000000     0.252000000
O    -3.719000000    -0.836000000    -0.306000000
O    -0.606000000     3.537000000     2.245000000
H     0.300000000     3.773000000     2.444000000
H    -0.694000000     3.696000000     1.305000000
O     1.421000000    -0.911000000    -2.422000000
H     0.996000000    -0.843000000    -1.567000000
H     0.759000000    -1.308000000    -2.988000000
O     2.599000000    -2.743000000     4.233000000
H     2.871000000    -1.846000000     4.038000000
H     1.674000000    -2.771000000     3.988000000
O     5.575000000    -0.248000000    -3.522000000
H     5.923000000    -0.998000000    -3.041000000
H     6.332000000     0.324000000    -3.653000000
O    -4.302000000     1.132000000    -2.206000000
H    -4.928000000     1.700000000    -1.756000000
H    -4.069000000     0.469000000    -1.555000000
O     6.312000000     3.944000000    -1.233000000
H     6.858000000     4.509000000    -1.779000000
H     5.414000000     4.165000000    -1.481000000
O     1.810000000     4.942000000     2.624000000
H     1.996000000     4.811000000     3.553000000
H     1.582000000     5.869000000     2.553000000
O     2.207000000     4.205000000    -0.047000000
H     2.147000000     4.322000000     0.901000000
H     1.322000000     3.959000000    -0.315000000
O     3.928000000    -1.677000000    -0.936000000
H     4.235000000    -1.092000000    -0.244000000
H     3.368000000    -1.127000000    -1.484000000
O     3.835000000    -4.181000000     0.452000000
H     3.750000000    -3.476000000    -0.189000000
H     4.575000000    -4.701000000     0.139000000
O     6.337000000    -2.319000000    -1.797000000
H     5.447000000    -2.305000000    -1.445000000
H     6.901000000    -2.239000000    -1.027000000
O     4.378000000     2.823000000     0.731000000
H     3.551000000     3.107000000     0.342000000
H     5.028000000     3.436000000     0.385000000
O    -5.099000000     3.155000000    -0.078000000
H    -5.690000000     3.035000000    -0.821000000
H    -4.741000000     4.034000000    -0.197000000
O     1.785000000    -4.540000000    -2.196000000
H     2.263000000    -5.195000000    -2.704000000
H     1.187000000    -4.137000000    -2.826000000
O     2.805000000     2.511000000    -5.110000000
H     2.955000000     2.113000000    -4.253000000
H     2.654000000     3.437000000    -4.921000000
O     2.155000000    -6.114000000     0.921000000
H     2.726000000    -5.355000000     0.805000000
H     1.945000000    -6.394000000     0.030000000
O    -0.292000000     5.365000000    -0.464000000
H     0.103000000     6.226000000    -0.605000000
H    -0.657000000     5.126000000    -1.316000000
O    -5.088000000    -4.297000000     4.531000000
H    -6.036000000    -4.237000000     4.643000000
H    -4.848000000    -3.486000000     4.083000000
O    -4.105000000     1.123000000     1.441000000
H    -4.401000000     1.840000000     0.880000000
H    -4.051000000     0.368000000     0.855000000
O    -3.460000000     1.552000000     4.246000000
H    -3.323000000     2.496000000     4.322000000
H    -3.540000000     1.396000000     3.305000000
O    -2.425000000    -0.927000000     4.968000000
H    -2.821000000    -0.072000000     4.796000000
H    -2.740000000    -1.485000000     4.257000000
O    -6.162000000    -5.636000000     1.387000000
H    -6.700000000    -5.126000000     1.993000000
H    -6.175000000    -6.524000000     1.743000000
O    -0.896000000    -2.225000000    -3.470000000
H    -1.525000000    -2.821000000    -3.063000000
H    -1.436000000    -1.552000000    -3.884000000
O     4.709000000    -3.970000000     3.126000000
H     4.451000000    -3.720000000     2.239000000
H     3.996000000    -3.651000000     3.681000000
O    -7.551000000    -0.629000000    -1.215000000
H    -6.788000000    -1.083000000    -1.571000000
H    -8.240000000    -0.772000000    -1.863000000
O    -2.123000000     4.900000000    -2.638000000
H    -1.913000000     4.153000000    -3.197000000
H    -3.000000000     4.710000000    -2.303000000
O    -0.465000000    -5.331000000    -0.543000000
H    -1.147000000    -5.050000000    -1.153000000
H     0.355000000    -5.079000000    -0.966000000
O    -5.077000000    -1.689000000    -2.386000000
H    -4.532000000    -1.423000000    -1.646000000
H    -5.289000000    -2.606000000    -2.210000000
O    -1.007000000    -5.171000000     2.651000000
H    -1.767000000    -5.426000000     3.174000000
H    -1.241000000    -5.411000000     1.754000000
O     1.386000000     2.084000000     5.369000000
H     1.221000000     1.341000000     4.789000000
H     1.102000000     2.848000000     4.867000000
O     0.718000000     0.188000000     3.553000000
H     0.071000000    -0.324000000     4.038000000
H     0.504000000     0.035000000     2.633000000
O     3.262000000     1.125000000    -2.824000000
H     2.653000000     0.398000000    -2.958000000
H     4.118000000     0.766000000    -3.057000000
O    -6.994000000     2.008000000    -1.785000000
H    -7.867000000     2.369000000    -1.625000000
H    -7.005000000     1.154000000    -1.352000000
O    -5.982000000    -2.073000000     1.471000000
H    -6.721000000    -2.252000000     0.888000000
H    -5.225000000    -2.017000000     0.888000000
O    -0.068000000    -2.656000000     4.596000000
H    -0.734000000    -1.989000000     4.762000000
H    -0.563000000    -3.421000000     4.302000000
O    -2.462000000    -4.228000000    -2.180000000
H    -2.868000000    -4.011000000    -1.341000000
H    -3.200000000    -4.371000000    -2.773000000
O     3.718000000     2.271000000     3.453000000
H     4.578000000     2.451000000     3.833000000
H     3.754000000     2.666000000     2.582000000
O    -3.324000000    -5.073000000     0.916000000
H    -3.013000000    -4.190000000     0.713000000
H    -4.256000000    -4.960000000     1.106000000
O    -2.572000000    -2.725000000     2.778000000
H    -2.818000000    -2.555000000     1.869000000
H    -1.814000000    -3.307000000     2.717000000
O    -5.466000000    -1.029000000    -5.131000000
H    -6.332000000    -1.433000000    -5.065000000
H    -5.138000000    -1.019000000    -4.231000000
O     7.562000000     1.764000000    -2.509000000
H     8.183000000     1.395000000    -1.881000000
H     7.111000000     2.454000000    -2.022000000
O     5.081000000    -0.050000000     0.780000000
H     4.796000000     0.838000000     0.566000000
H     6.032000000     0.017000000     0.867000000
O     3.947000000     4.881000000    -2.244000000
H     3.227000000     4.690000000    -1.643000000
H     3.533000000     4.931000000    -3.105000000
O    -5.635000000    -4.371000000    -2.278000000
H    -5.560000000    -4.446000000    -3.229000000
H    -5.653000000    -5.276000000    -1.966000000
O     4.259000000    -0.543000000     3.499000000
H     3.921000000     0.347000000     3.404000000
H     4.280000000    -0.888000000     2.607000000
O    -3.041000000     1.966000000    -4.362000000
H    -3.557000000     1.697000000    -3.602000000
H    -2.624000000     1.160000000    -4.666000000
O    -1.701000000    -7.569000000     0.377000000
H    -2.577000000    -7.199000000     0.483000000
H    -1.155000000    -6.823000000     0.124000000
O    -6.493000000    -1.008000000     4.055000000
H    -6.145000000    -1.359000000     3.235000000
H    -7.081000000    -0.303000000     3.783000000
