158
-3033.93625
C    -1.247000000    -0.508000000    -0.675000000
H    -2.083000000    -1.057000000    -1.103000000
C     0.047000000    -1.096000000    -0.622000000
H     0.031000000    -2.115000000    -1.001000000
C     1.125000000    -0.544000000     0.061000000
H     2.004000000    -1.108000000     0.177000000
C     0.895000000     0.705000000     0.675000000
H     1.677000000     1.167000000     1.271000000
C    -0.263000000     1.384000000     0.415000000
H    -0.161000000     2.384000000     0.829000000
C    -1.354000000     0.808000000    -0.171000000
C    -2.641000000     1.546000000    -0.295000000
O    -3.539000000     0.800000000    -0.678000000
O    -2.807000000     2.743000000    -0.128000000
O    -1.436000000     2.719000000     5.390000000
H    -1.914000000     2.538000000     4.580000000
H    -1.364000000     3.673000000     5.418000000
O     5.073000000    -0.539000000    -1.326000000
H     4.694000000    -0.925000000    -2.115000000
H     5.631000000    -1.228000000    -0.966000000
O     1.995000000     1.024000000    -2.278000000
H     1.342000000     1.513000000    -2.779000000
H     1.640000000     0.990000000    -1.390000000
O     5.215000000    -2.621000000     3.885000000
H     5.223000000    -2.509000000     4.836000000
H     4.512000000    -2.047000000     3.582000000
O     6.501000000     1.710000000    -1.983000000
H     6.176000000     0.862000000    -1.682000000
H     5.761000000     2.098000000    -2.450000000
O    -2.730000000     4.601000000    -2.081000000
H    -2.198000000     5.213000000    -1.572000000
H    -2.869000000     3.859000000    -1.493000000
O    -0.540000000    -3.939000000    -3.314000000
H    -0.090000000    -3.102000000    -3.429000000
H    -1.471000000    -3.715000000    -3.337000000
O     7.076000000     1.253000000     2.061000000
H     7.275000000     0.924000000     2.938000000
H     6.347000000     0.709000000     1.761000000
O     0.570000000     4.966000000     3.220000000
H     0.251000000     5.827000000     2.950000000
H    -0.108000000     4.357000000     2.928000000
O     4.674000000     0.599000000     1.013000000
H     4.603000000     1.529000000     0.800000000
H     4.598000000     0.153000000     0.169000000
O     6.835000000    -2.143000000    -0.143000000
H     6.519000000    -2.745000000    -0.817000000
H     6.789000000    -2.647000000     0.670000000
O     0.112000000    -3.244000000     1.793000000
H     0.295000000    -3.785000000     1.025000000
H     0.966000000    -3.120000000     2.208000000
O    -3.075000000    -3.120000000     2.926000000
H    -2.887000000    -2.195000000     3.090000000
H    -2.859000000    -3.248000000     2.003000000
O    -0.986000000     5.889000000    -0.275000000
H    -1.634000000     5.875000000     0.429000000
H    -0.144000000     5.804000000     0.173000000
O    -2.701000000     6.136000000     1.825000000
H    -2.980000000     6.848000000     2.400000000
H    -3.506000000     5.839000000     1.402000000
O    -1.815000000     3.637000000     2.224000000
H    -2.031000000     3.346000000     1.338000000
H    -2.001000000     4.576000000     2.220000000
O     5.196000000    -1.713000000    -4.095000000
H     4.624000000    -2.460000000    -3.924000000
H     6.030000000    -2.105000000    -4.357000000
O     0.579000000    -4.986000000    -0.593000000
H     0.014000000    -4.467000000    -1.166000000
H     1.222000000    -5.379000000    -1.183000000
O    -0.951000000    -4.685000000     4.121000000
H    -0.532000000    -4.022000000     3.572000000
H    -1.860000000    -4.395000000     4.195000000
O     4.797000000     3.359000000     3.042000000
H     5.507000000     3.941000000     3.311000000
H     4.892000000     2.589000000     3.603000000
O     1.780000000    -5.977000000     2.259000000
H     1.071000000    -6.517000000     1.910000000
H     1.339000000    -5.328000000     2.808000000
O     2.125000000    -2.936000000     3.549000000
H     2.497000000    -2.100000000     3.268000000
H     1.994000000    -2.835000000     4.492000000
O    -3.144000000    -3.609000000    -2.256000000
H    -3.488000000    -4.171000000    -2.950000000
H    -3.860000000    -3.003000000    -2.062000000
O     3.209000000    -3.559000000    -4.220000000
H     2.597000000    -2.917000000    -4.581000000
H     2.717000000    -3.993000000    -3.522000000
O    -5.438000000     3.062000000     0.579000000
H    -5.788000000     2.172000000     0.608000000
H    -4.568000000     2.965000000     0.193000000
O    -2.128000000    -0.448000000     2.814000000
H    -1.616000000    -0.253000000     2.029000000
H    -1.503000000    -0.367000000     3.534000000
O     6.292000000    -4.059000000     1.847000000
H     5.886000000    -3.682000000     2.628000000
H     5.640000000    -4.674000000     1.512000000
O     5.338000000    -3.721000000    -1.692000000
H     4.385000000    -3.803000000    -1.722000000
H     5.651000000    -4.615000000    -1.554000000
O     3.912000000    -5.382000000     3.965000000
H     3.382000000    -5.933000000     3.389000000
H     3.841000000    -4.505000000     3.590000000
O    -0.236000000     2.294000000    -3.268000000
H    -1.128000000     1.965000000    -3.160000000
H    -0.055000000     2.194000000    -4.203000000
O    -4.946000000     5.386000000    -3.212000000
H    -4.134000000     5.173000000    -2.753000000
H    -5.304000000     6.133000000    -2.731000000
O    -4.623000000     0.524000000    -2.900000000
H    -4.207000000     0.415000000    -2.045000000
H    -5.495000000     0.144000000    -2.792000000
O    -2.355000000    -6.381000000     0.189000000
H    -2.052000000    -5.534000000     0.515000000
H    -3.254000000    -6.453000000     0.510000000
O    -3.919000000     1.682000000     3.659000000
H    -4.796000000     1.370000000     3.882000000
H    -3.545000000     0.982000000     3.123000000
O    -4.852000000     2.515000000    -5.253000000
H    -4.443000000     2.185000000    -4.453000000
H    -5.684000000     2.045000000    -5.307000000
O     3.323000000    -0.676000000     3.171000000
H     3.628000000    -0.169000000     3.924000000
H     3.683000000    -0.217000000     2.412000000
O    -5.368000000     5.708000000     0.799000000
H    -5.380000000     4.765000000     0.637000000
H    -5.866000000     5.819000000     1.609000000
O     4.483000000    -5.975000000     0.716000000
H     3.553000000    -5.869000000     0.914000000
H     4.519000000    -6.731000000     0.130000000
O    -7.678000000     1.173000000    -0.331000000
H    -6.897000000     0.842000000    -0.776000000
H    -8.409000000     0.817000000    -0.836000000
O     0.932000000    -1.455000000    -3.675000000
H     1.403000000    -0.815000000    -3.141000000
H     0.572000000    -0.943000000    -4.399000000
O     1.767000000     4.965000000    -0.350000000
H     1.876000000     4.938000000    -1.301000000
H     2.388000000     4.315000000    -0.020000000
O    -5.003000000    -0.348000000     1.034000000
H    -4.613000000    -0.065000000     0.207000000
H    -4.454000000     0.054000000     1.707000000
O    -5.040000000    -2.091000000    -1.232000000
H    -5.290000000    -2.953000000    -0.900000000
H    -5.040000000    -1.527000000    -0.458000000
O    -1.784000000     4.984000000    -4.672000000
H    -1.898000000     4.704000000    -3.764000000
H    -1.873000000     5.936000000    -4.643000000
O    -4.544000000     4.109000000     3.893000000
H    -3.987000000     3.410000000     3.551000000
H    -5.430000000     3.747000000     3.860000000
O    -2.580000000    -1.327000000    -4.669000000
H    -3.297000000    -1.485000000    -5.283000000
H    -3.009000000    -1.242000000    -3.817000000
O     4.166000000     3.442000000     0.214000000
H     4.223000000     3.854000000     1.076000000
H     4.885000000     3.829000000    -0.285000000
O    -2.459000000    -3.253000000     0.307000000
H    -2.692000000    -3.509000000    -0.585000000
H    -1.616000000    -2.810000000     0.217000000
