158
-3038.62397
C    -0.859000000    -0.854000000    -0.852000000
H    -1.391000000    -1.612000000    -1.422000000
C     0.477000000    -1.085000000    -0.597000000
H     0.948000000    -1.909000000    -1.126000000
C     1.155000000    -0.299000000     0.312000000
H     2.113000000    -0.673000000     0.704000000
C     0.523000000     0.788000000     0.908000000
H     0.986000000     1.493000000     1.594000000
C    -0.806000000     1.061000000     0.569000000
H    -1.283000000     1.939000000     0.996000000
C    -1.494000000     0.240000000    -0.328000000
C    -2.928000000     0.631000000    -0.676000000
O    -3.668000000    -0.151000000    -1.143000000
O    -3.342000000     1.731000000    -0.264000000
O    -6.386000000     4.237000000    -1.776000000
H    -6.406000000     5.017000000    -1.220000000
H    -6.273000000     3.510000000    -1.164000000
O    -0.536000000     1.743000000     4.429000000
H    -0.920000000     2.306000000     3.757000000
H    -1.132000000     0.996000000     4.485000000
O     3.895000000    -0.330000000    -2.721000000
H     3.014000000    -0.486000000    -3.059000000
H     4.082000000    -1.095000000    -2.177000000
O     3.278000000     2.594000000    -2.310000000
H     2.578000000     2.956000000    -2.855000000
H     3.140000000     1.648000000    -2.341000000
O     3.752000000    -2.471000000     3.645000000
H     3.555000000    -1.548000000     3.804000000
H     4.228000000    -2.475000000     2.815000000
O    -3.528000000     1.609000000    -3.290000000
H    -4.115000000     0.994000000    -3.730000000
H    -3.630000000     1.413000000    -2.359000000
O    -2.225000000    -4.682000000    -4.263000000
H    -1.762000000    -3.899000000    -4.562000000
H    -3.149000000    -4.488000000    -4.420000000
O     7.245000000     2.303000000     1.659000000
H     6.459000000     2.765000000     1.365000000
H     6.914000000     1.607000000     2.226000000
O    -3.683000000     5.232000000    -2.795000000
H    -4.254000000     4.637000000    -2.308000000
H    -4.090000000     6.092000000    -2.692000000
O     1.430000000     5.251000000     1.944000000
H     0.713000000     4.687000000     2.235000000
H     1.396000000     5.207000000     0.988000000
O    -1.431000000     4.089000000     2.782000000
H    -2.277000000     3.661000000     2.915000000
H    -1.613000000     4.785000000     2.150000000
O     4.893000000    -1.042000000     1.396000000
H     4.847000000    -1.485000000     0.548000000
H     4.693000000    -0.127000000     1.199000000
O     1.225000000     4.581000000     4.777000000
H     0.869000000     4.543000000     3.889000000
H     0.535000000     4.998000000     5.294000000
O     4.874000000    -2.508000000    -0.967000000
H     4.288000000    -3.209000000    -1.250000000
H     5.630000000    -2.963000000    -0.596000000
O     1.620000000    -5.365000000    -0.268000000
H     1.288000000    -6.116000000    -0.760000000
H     0.839000000    -4.851000000    -0.059000000
O    -2.698000000     5.789000000     0.938000000
H    -3.585000000     5.447000000     0.828000000
H    -2.180000000     5.329000000     0.278000000
O    -4.986000000    -1.775000000     2.054000000
H    -4.735000000    -2.509000000     2.616000000
H    -5.320000000    -1.113000000     2.659000000
O    -1.926000000     3.897000000    -0.873000000
H    -1.964000000     3.762000000    -1.820000000
H    -2.308000000     3.102000000    -0.502000000
O    -5.722000000     4.531000000     1.565000000
H    -6.167000000     4.798000000     2.370000000
H    -5.829000000     5.276000000     0.974000000
O    -3.863000000     2.712000000     2.327000000
H    -3.572000000     2.300000000     1.514000000
H    -4.300000000     3.516000000     2.046000000
O    -8.813000000     1.348000000     0.246000000
H    -7.978000000     1.476000000    -0.204000000
H    -9.236000000     0.636000000    -0.233000000
O     1.497000000    -0.446000000    -4.214000000
H     0.560000000    -0.371000000    -4.033000000
H     1.665000000     0.216000000    -4.885000000
O     6.262000000     1.143000000    -3.033000000
H     6.528000000     0.465000000    -2.412000000
H     5.334000000     0.971000000    -3.192000000
O     6.525000000     0.040000000     3.190000000
H     5.930000000    -0.332000000     2.540000000
H     7.177000000    -0.645000000     3.338000000
O     2.821000000    -4.543000000     5.165000000
H     3.356000000    -4.008000000     4.579000000
H     2.276000000    -3.913000000     5.634000000
O    -0.426000000    -2.716000000    -4.978000000
H    -0.587000000    -1.808000000    -4.721000000
H     0.472000000    -2.889000000    -4.696000000
O    -6.005000000     2.117000000     0.089000000
H    -5.818000000     2.817000000     0.715000000
H    -5.179000000     1.639000000     0.011000000
O    -1.121000000    -4.055000000     0.793000000
H    -0.552000000    -3.472000000     1.295000000
H    -1.809000000    -3.483000000     0.451000000
O    -0.060000000     2.248000000     7.022000000
H    -0.522000000     1.411000000     7.077000000
H     0.115000000     2.364000000     6.088000000
O     3.696000000     3.110000000     4.484000000
H     4.425000000     3.726000000     4.407000000
H     2.918000000     3.664000000     4.532000000
O     1.186000000    -0.536000000     4.578000000
H     1.882000000    -0.179000000     4.025000000
H     0.629000000     0.216000000     4.777000000
O     3.353000000    -4.582000000    -2.388000000
H     2.760000000    -4.589000000    -1.637000000
H     2.779000000    -4.671000000    -3.148000000
O    -1.441000000     2.189000000    -5.020000000
H    -1.998000000     2.298000000    -5.790000000
H    -2.024000000     2.350000000    -4.277000000
O    -5.749000000     0.692000000    -4.874000000
H    -6.192000000     1.254000000    -5.510000000
H    -6.364000000     0.626000000    -4.143000000
O    -6.507000000    -0.751000000    -0.700000000
H    -5.593000000    -0.563000000    -0.488000000
H    -6.784000000    -0.011000000    -1.241000000
O     0.431000000    -2.148000000     2.304000000
H     0.434000000    -1.654000000     3.124000000
H     0.072000000    -1.538000000     1.659000000
O    -1.309000000    -0.317000000    -4.032000000
H    -2.228000000    -0.278000000    -3.767000000
H    -1.161000000     0.502000000    -4.504000000
O     5.227000000     3.328000000    -0.472000000
H     5.022000000     4.158000000    -0.041000000
H     4.661000000     3.313000000    -1.243000000
O    -4.029000000    -2.735000000    -0.475000000
H    -4.050000000    -1.809000000    -0.714000000
H    -4.302000000    -2.752000000     0.443000000
O    -5.984000000     2.254000000     4.509000000
H    -5.573000000     2.480000000     3.675000000
H    -6.855000000     2.648000000     4.462000000
O    -2.820000000    -0.457000000     4.252000000
H    -2.795000000    -1.404000000     4.392000000
H    -3.753000000    -0.245000000     4.217000000
O    -7.263000000     1.331000000    -2.765000000
H    -8.092000000     0.934000000    -3.035000000
H    -7.466000000     2.260000000    -2.660000000
O    -4.594000000    -1.637000000    -6.223000000
H    -4.638000000    -0.875000000    -5.645000000
H    -4.341000000    -2.359000000    -5.648000000
O     4.578000000    -0.507000000    -5.411000000
H     3.699000000    -0.698000000    -5.738000000
H     4.504000000    -0.595000000    -4.460000000
O    -4.131000000    -1.448000000    -3.236000000
H    -4.766000000    -2.164000000    -3.227000000
H    -4.129000000    -1.118000000    -2.337000000
O     4.189000000     1.332000000     0.903000000
H     4.664000000     2.004000000     0.414000000
H     3.266000000     1.535000000     0.754000000
O     3.371000000     0.574000000     3.556000000
H     3.846000000     0.733000000     2.740000000
H     3.406000000     1.410000000     4.020000000
O    -3.888000000    -6.058000000    -1.868000000
H    -3.198000000    -5.580000000    -2.327000000
H    -4.150000000    -5.476000000    -1.155000000
