158
-3041.55411
C    -0.358000000    -0.821000000     1.208000000
H    -0.639000000    -1.303000000     2.141000000
C     0.632000000     0.202000000     1.194000000
H     1.230000000     0.527000000     2.042000000
C     0.953000000     0.861000000    -0.033000000
H     1.672000000     1.650000000    -0.137000000
C     0.215000000     0.454000000    -1.176000000
H     0.349000000     0.953000000    -2.132000000
C    -0.710000000    -0.553000000    -1.123000000
H    -1.368000000    -0.713000000    -1.973000000
C    -1.013000000    -1.263000000     0.034000000
C    -2.125000000    -2.305000000     0.040000000
O    -2.307000000    -2.878000000     1.071000000
O    -2.895000000    -2.406000000    -0.891000000
O    -4.669000000     2.264000000    -2.542000000
H    -4.373000000     1.416000000    -2.871000000
H    -5.476000000     2.068000000    -2.065000000
O    -2.479000000     2.144000000     5.260000000
H    -1.911000000     2.908000000     5.162000000
H    -1.909000000     1.396000000     5.081000000
O     0.000000000     2.289000000     3.489000000
H    -0.036000000     3.239000000     3.602000000
H     0.134000000     2.165000000     2.549000000
O     1.611000000     3.698000000    -3.401000000
H     0.740000000     3.661000000    -3.006000000
H     2.128000000     4.226000000    -2.793000000
O     1.375000000    -0.815000000    -4.809000000
H     2.262000000    -0.741000000    -4.457000000
H     1.149000000    -1.738000000    -4.698000000
O     4.432000000    -0.553000000     1.831000000
H     3.922000000    -0.657000000     2.635000000
H     4.895000000    -1.385000000     1.731000000
O     2.017000000     7.613000000     0.362000000
H     2.039000000     6.883000000     0.981000000
H     1.364000000     7.355000000    -0.289000000
O     6.184000000     3.242000000    -0.745000000
H     6.247000000     3.510000000    -1.662000000
H     5.574000000     3.867000000    -0.353000000
O     3.700000000     4.650000000     0.860000000
H     3.742000000     3.803000000     1.304000000
H     3.079000000     5.162000000     1.379000000
O     1.551000000     5.578000000     2.221000000
H     0.939000000     5.111000000     1.652000000
H     1.481000000     5.133000000     3.065000000
O     4.703000000     0.681000000    -1.253000000
H     5.018000000     1.523000000    -0.924000000
H     4.719000000     0.104000000    -0.489000000
O     1.970000000    -2.009000000    -1.421000000
H     2.337000000    -2.318000000    -0.592000000
H     1.379000000    -1.299000000    -1.171000000
O    -6.983000000    -1.728000000     0.935000000
H    -6.419000000    -1.549000000     0.183000000
H    -7.750000000    -1.171000000     0.797000000
O     0.440000000    -4.575000000    -0.469000000
H     0.576000000    -5.468000000    -0.151000000
H     1.078000000    -4.049000000     0.013000000
O    -5.502000000    -0.308000000     3.553000000
H    -4.890000000    -1.041000000     3.616000000
H    -6.044000000    -0.513000000     2.791000000
O    -2.097000000     2.223000000    -0.362000000
H    -1.926000000     1.283000000    -0.421000000
H    -2.842000000     2.368000000    -0.945000000
O     2.676000000    -1.531000000     3.685000000
H     2.879000000    -1.168000000     4.547000000
H     1.922000000    -2.100000000     3.836000000
O     1.612000000     4.756000000     4.673000000
H     1.064000000     4.812000000     5.456000000
H     2.496000000     4.951000000     4.984000000
O     2.906000000     5.126000000    -1.843000000
H     2.285000000     5.806000000    -1.583000000
H     3.289000000     4.824000000    -1.019000000
O    -0.091000000     2.529000000    -5.331000000
H    -0.449000000     3.333000000    -5.707000000
H     0.748000000     2.794000000    -4.954000000
O     0.602000000    -2.921000000     4.479000000
H     0.639000000    -3.333000000     5.342000000
H     0.401000000    -3.639000000     3.879000000
O    -3.012000000    -2.829000000    -3.449000000
H    -3.524000000    -3.637000000    -3.417000000
H    -2.796000000    -2.646000000    -2.535000000
O    -2.972000000    -6.874000000     2.458000000
H    -2.992000000    -6.466000000     3.324000000
H    -3.459000000    -6.270000000     1.898000000
O     1.811000000     4.885000000    -5.843000000
H     1.709000000     4.641000000    -4.923000000
H     1.774000000     5.841000000    -5.842000000
O    -3.127000000    -2.002000000    -6.413000000
H    -2.935000000    -2.625000000    -5.713000000
H    -2.590000000    -1.237000000    -6.207000000
O    -6.717000000     1.476000000    -0.693000000
H    -6.107000000     0.774000000    -0.468000000
H    -7.582000000     1.070000000    -0.639000000
O    -5.287000000    -4.941000000    -3.741000000
H    -6.055000000    -5.321000000    -3.315000000
H    -5.564000000    -4.059000000    -3.991000000
O    -0.257000000    -3.185000000    -4.051000000
H     0.180000000    -3.344000000    -3.215000000
H    -1.158000000    -2.967000000    -3.813000000
O    -5.409000000    -0.919000000    -1.320000000
H    -4.770000000    -1.501000000    -0.907000000
H    -5.039000000    -0.731000000    -2.183000000
O    -0.786000000    -4.500000000     2.541000000
H    -1.101000000    -5.352000000     2.240000000
H    -1.364000000    -3.867000000     2.115000000
O    -0.730000000    -0.095000000     5.600000000
H    -0.958000000    -0.842000000     6.154000000
H    -0.720000000    -0.451000000     4.711000000
O     2.569000000    -3.194000000     1.162000000
H     2.268000000    -2.507000000     1.756000000
H     3.520000000    -3.204000000     1.268000000
O     3.558000000     2.329000000     2.314000000
H     3.742000000     1.404000000     2.149000000
H     3.335000000     2.367000000     3.244000000
O    -6.462000000    -4.236000000     0.060000000
H    -7.113000000    -4.907000000    -0.148000000
H    -6.975000000    -3.504000000     0.403000000
O    -0.697000000     4.270000000     1.305000000
H    -1.035000000     3.505000000     0.838000000
H    -1.371000000     4.939000000     1.189000000
O    -1.315000000    -0.108000000    -5.678000000
H    -0.461000000    -0.501000000    -5.498000000
H    -1.149000000     0.834000000    -5.686000000
O     3.031000000     1.462000000    -4.011000000
H     2.280000000     1.009000000    -4.394000000
H     2.662000000     2.259000000    -3.631000000
O    -2.060000000    -5.883000000    -1.078000000
H    -1.198000000    -5.596000000    -0.778000000
H    -2.677000000    -5.411000000    -0.519000000
O    -3.948000000    -2.544000000     3.487000000
H    -4.586000000    -3.211000000     3.234000000
H    -3.142000000    -2.801000000     3.039000000
O    -3.990000000    -4.822000000     0.863000000
H    -4.880000000    -4.480000000     0.781000000
H    -3.430000000    -4.049000000     0.802000000
O     2.605000000     1.447000000     4.698000000
H     2.686000000     0.890000000     5.472000000
H     1.673000000     1.662000000     4.655000000
O    -2.876000000    -5.467000000     4.721000000
H    -2.767000000    -4.640000000     5.191000000
H    -3.787000000    -5.458000000     4.428000000
O    -0.711000000     3.891000000    -2.151000000
H    -1.015000000     3.548000000    -1.311000000
H    -1.402000000     4.493000000    -2.429000000
O     7.199000000    -0.158000000     2.308000000
H     6.451000000     0.327000000     1.958000000
H     7.684000000     0.487000000     2.822000000
O     3.669000000    -1.157000000    -3.282000000
H     3.931000000    -0.299000000    -2.947000000
H     3.215000000    -1.572000000    -2.549000000
O    -3.957000000    -0.204000000    -3.559000000
H    -3.346000000     0.149000000    -4.206000000
H    -3.898000000    -1.153000000    -3.667000000
O     0.381000000     6.505000000    -1.699000000
H    -0.295000000     7.182000000    -1.679000000
H    -0.102000000     5.686000000    -1.803000000
O    -5.405000000    -4.670000000     3.739000000
H    -5.900000000    -5.363000000     4.176000000
H    -6.072000000    -4.126000000     3.322000000
