158
-3005.94807
C    -0.427000000    -1.038000000     0.936000000
H    -0.529000000    -1.841000000     1.661000000
C     0.391000000     0.040000000     1.192000000
H     0.907000000     0.031000000     2.148000000
C     0.753000000     0.973000000     0.249000000
H     1.377000000     1.787000000     0.482000000
C     0.079000000     0.951000000    -0.981000000
H     0.350000000     1.699000000    -1.722000000
C    -0.766000000    -0.196000000    -1.344000000
H    -1.107000000    -0.191000000    -2.376000000
C    -1.055000000    -1.179000000    -0.346000000
C    -1.896000000    -2.412000000    -0.591000000
O    -1.828000000    -3.349000000     0.201000000
O    -2.673000000    -2.502000000    -1.553000000
O    -5.098000000     1.824000000    -0.075000000
H    -5.752000000     2.218000000    -0.653000000
H    -4.887000000     0.987000000    -0.488000000
O    -2.403000000    -7.071000000    -1.343000000
H    -1.837000000    -7.423000000    -2.030000000
H    -3.057000000    -7.755000000    -1.198000000
O    -2.091000000    -0.546000000     4.209000000
H    -2.274000000    -1.473000000     4.058000000
H    -2.268000000    -0.126000000     3.367000000
O    -2.355000000     1.137000000     1.994000000
H    -2.068000000     2.027000000     2.194000000
H    -1.795000000     0.862000000     1.268000000
O    -2.127000000     2.201000000    -3.844000000
H    -1.418000000     1.838000000    -4.374000000
H    -2.048000000     3.149000000    -3.954000000
O     4.910000000    -3.372000000    -0.284000000
H     4.442000000    -2.636000000     0.109000000
H     4.479000000    -3.508000000    -1.127000000
O     4.435000000    -0.800000000     0.558000000
H     4.987000000    -0.050000000     0.780000000
H     3.747000000    -0.797000000     1.224000000
O    -1.098000000     0.728000000     6.263000000
H    -1.549000000     0.308000000     5.530000000
H    -0.552000000     1.400000000     5.855000000
O     3.259000000    -1.190000000     3.217000000
H     2.492000000    -1.761000000     3.249000000
H     2.955000000    -0.361000000     3.587000000
O     2.773000000     5.748000000    -0.240000000
H     3.032000000     4.941000000    -0.686000000
H     2.421000000     5.455000000     0.600000000
O     3.379000000    -0.102000000    -1.868000000
H     3.877000000    -0.206000000    -1.057000000
H     2.495000000     0.125000000    -1.578000000
O     1.764000000     5.397000000     2.205000000
H     1.033000000     5.930000000     2.518000000
H     2.051000000     4.907000000     2.976000000
O     4.032000000    -0.906000000    -4.462000000
H     3.926000000    -0.625000000    -3.553000000
H     3.798000000    -0.136000000    -4.980000000
O    -5.728000000    -1.560000000    -0.053000000
H    -5.396000000    -2.164000000    -0.717000000
H    -5.488000000    -1.964000000     0.781000000
O    -0.903000000    -4.763000000    -3.924000000
H    -1.685000000    -4.912000000    -3.393000000
H    -0.269000000    -5.403000000    -3.601000000
O    -0.818000000     4.274000000    -2.631000000
H    -1.068000000     4.769000000    -1.851000000
H    -1.132000000     3.386000000    -2.462000000
O     4.005000000     3.318000000     4.841000000
H     4.035000000     4.182000000     5.250000000
H     4.450000000     3.435000000     4.001000000
O     4.959000000     4.804000000     2.246000000
H     5.911000000     4.871000000     2.325000000
H     4.807000000     4.631000000     1.317000000
O    -1.532000000     3.712000000     2.442000000
H    -2.162000000     4.410000000     2.622000000
H    -1.252000000     3.870000000     1.540000000
O     0.793000000    -2.503000000     3.740000000
H     0.593000000    -1.804000000     4.363000000
H     0.468000000    -3.298000000     4.161000000
O     5.143000000     3.809000000    -0.632000000
H     4.959000000     3.594000000    -1.546000000
H     5.130000000     2.965000000    -0.180000000
O    -3.785000000    -2.900000000    -4.003000000
H    -3.423000000    -3.019000000    -3.125000000
H    -3.317000000    -2.142000000    -4.355000000
O    -1.805000000    -5.568000000     1.736000000
H    -1.618000000    -4.768000000     1.246000000
H    -1.557000000    -6.276000000     1.142000000
O     4.615000000     3.229000000    -3.394000000
H     5.209000000     2.492000000    -3.254000000
H     4.965000000     3.675000000    -4.165000000
O     1.564000000     4.013000000    -6.236000000
H     0.844000000     4.439000000    -6.702000000
H     1.252000000     3.931000000    -5.335000000
O     1.842000000    -0.734000000     7.226000000
H     1.373000000    -0.366000000     6.476000000
H     2.567000000    -1.222000000     6.838000000
O    -5.427000000    -3.229000000    -6.166000000
H    -4.890000000    -3.231000000    -5.374000000
H    -5.993000000    -2.463000000    -6.069000000
O    -0.060000000    -2.295000000    -5.772000000
H     0.439000000    -2.867000000    -6.355000000
H    -0.229000000    -2.832000000    -4.997000000
O    -4.240000000    -0.254000000    -2.242000000
H    -3.618000000    -0.882000000    -1.874000000
H    -3.741000000     0.559000000    -2.320000000
O     0.700000000    -5.211000000    -1.344000000
H     0.593000000    -6.040000000    -0.879000000
H     0.442000000    -4.544000000    -0.708000000
O     0.950000000     5.222000000     4.958000000
H     0.626000000     5.469000000     5.824000000
H     0.710000000     5.957000000     4.394000000
O     6.139000000     1.290000000     0.969000000
H     6.691000000     1.037000000     0.229000000
H     6.736000000     1.311000000     1.717000000
O     0.189000000     2.804000000     4.511000000
H     0.476000000     3.711000000     4.611000000
H    -0.464000000     2.835000000     3.812000000
O    -6.199000000    -4.864000000    -2.519000000
H    -5.407000000    -4.714000000    -2.003000000
H    -6.471000000    -3.991000000    -2.801000000
O    -1.892000000     5.053000000    -0.009000000
H    -2.675000000     4.727000000     0.436000000
H    -1.800000000     5.955000000     0.299000000
O    -2.402000000    -1.036000000    -5.886000000
H    -2.585000000    -0.548000000    -6.689000000
H    -1.489000000    -1.308000000    -5.973000000
O     0.930000000     6.962000000    -2.186000000
H     0.508000000     6.233000000    -2.640000000
H     1.498000000     6.545000000    -1.538000000
O    -0.736000000     1.574000000    -6.151000000
H    -0.522000000     2.202000000    -6.841000000
H    -0.226000000     0.795000000    -6.369000000
O     0.635000000    -5.351000000     4.391000000
H     0.299000000    -5.548000000     3.517000000
H     1.578000000    -5.501000000     4.325000000
O    -4.310000000    -5.698000000    -4.395000000
H    -5.143000000    -5.657000000    -3.924000000
H    -3.709000000    -5.177000000    -3.862000000
O    -3.869000000    -2.575000000     2.194000000
H    -4.637000000    -3.070000000     1.909000000
H    -3.165000000    -2.872000000     1.618000000
O    -3.163000000    -6.471000000     3.974000000
H    -4.031000000    -6.601000000     3.593000000
H    -2.676000000    -5.995000000     3.301000000
O    -3.944000000    -4.814000000    -1.114000000
H    -3.306000000    -5.525000000    -1.185000000
H    -3.414000000    -4.033000000    -0.956000000
O     2.297000000     0.953000000     4.403000000
H     1.414000000     1.319000000     4.365000000
H     2.847000000     1.682000000     4.691000000
O    -5.786000000    -6.168000000     0.623000000
H    -5.698000000    -7.079000000     0.902000000
H    -4.931000000    -5.945000000     0.256000000
O    -6.612000000    -1.760000000    -3.673000000
H    -5.667000000    -1.914000000    -3.672000000
H    -6.720000000    -0.938000000    -3.194000000
O    -4.879000000     1.645000000    -4.395000000
H    -4.800000000     1.380000000    -5.311000000
H    -3.975000000     1.760000000    -4.100000000
O    -6.209000000    -3.740000000     1.751000000
H    -6.991000000    -3.528000000     2.260000000
H    -6.274000000    -4.681000000     1.593000000
