158
-3021.04321
C    -0.504000000    -1.210000000     0.645000000
H    -0.701000000    -2.134000000     1.184000000
C     0.768000000    -0.633000000     0.868000000
H     1.518000000    -1.028000000     1.549000000
C     1.087000000     0.516000000     0.222000000
H     2.012000000     0.938000000     0.437000000
C     0.186000000     1.164000000    -0.675000000
H     0.434000000     2.129000000    -1.111000000
C    -1.045000000     0.523000000    -0.922000000
H    -1.680000000     0.932000000    -1.704000000
C    -1.436000000    -0.661000000    -0.259000000
C    -2.616000000    -1.474000000    -0.595000000
O    -2.859000000    -2.586000000    -0.051000000
O    -3.408000000    -1.128000000    -1.462000000
O    -5.959000000     3.440000000    -1.106000000
H    -6.438000000     3.422000000    -1.935000000
H    -5.489000000     2.607000000    -1.083000000
O    -2.997000000    -6.132000000    -0.950000000
H    -2.939000000    -5.526000000    -1.689000000
H    -3.019000000    -5.567000000    -0.178000000
O    -3.314000000     0.228000000     2.326000000
H    -2.855000000    -0.312000000     1.683000000
H    -2.904000000     1.090000000     2.252000000
O    -1.822000000     2.379000000     1.537000000
H    -2.142000000     3.144000000     1.059000000
H    -1.047000000     2.099000000     1.050000000
O    -1.979000000    -0.539000000    -3.893000000
H    -2.578000000     0.198000000    -4.013000000
H    -2.232000000    -0.918000000    -3.051000000
O     5.014000000    -1.168000000     1.675000000
H     5.741000000    -1.730000000     1.410000000
H     4.889000000    -0.573000000     0.935000000
O     6.121000000    -0.267000000    -2.532000000
H     5.766000000    -1.139000000    -2.358000000
H     6.689000000    -0.387000000    -3.293000000
O     2.323000000    -1.592000000     4.498000000
H     2.961000000    -2.281000000     4.687000000
H     1.795000000    -1.945000000     3.782000000
O     1.191000000     6.135000000     2.581000000
H     1.205000000     5.820000000     1.677000000
H     1.056000000     7.079000000     2.503000000
O     3.151000000     2.348000000     2.529000000
H     2.296000000     2.764000000     2.644000000
H     3.233000000     1.760000000     3.279000000
O     3.500000000    -3.624000000     1.915000000
H     3.955000000    -2.819000000     2.165000000
H     4.061000000    -4.019000000     1.248000000
O     0.624000000     2.783000000     3.338000000
H     0.033000000     3.055000000     2.636000000
H     0.216000000     3.118000000     4.137000000
O    -6.225000000    -0.483000000     0.604000000
H    -5.674000000    -0.940000000    -0.031000000
H    -6.008000000    -0.886000000     1.445000000
O     7.804000000     0.598000000     0.825000000
H     6.879000000     0.781000000     0.659000000
H     8.206000000     1.461000000     0.923000000
O    -2.440000000    -3.181000000    -5.297000000
H    -1.993000000    -3.639000000    -6.009000000
H    -2.289000000    -2.254000000    -5.476000000
O    -0.991000000     5.196000000    -1.654000000
H    -0.972000000     4.989000000    -0.720000000
H    -1.603000000     4.562000000    -2.028000000
O     1.878000000     1.604000000    -3.264000000
H     1.719000000     1.209000000    -2.407000000
H     2.495000000     1.010000000    -3.691000000
O     4.705000000     4.270000000     3.596000000
H     4.236000000     3.765000000     2.932000000
H     4.052000000     4.436000000     4.276000000
O     1.323000000     5.155000000    -4.183000000
H     1.876000000     5.573000000    -3.523000000
H     1.941000000     4.761000000    -4.799000000
O    -2.106000000     5.189000000     0.779000000
H    -2.006000000     5.810000000     1.501000000
H    -2.926000000     5.442000000     0.357000000
O    -8.179000000     1.132000000    -0.666000000
H    -7.385000000     0.745000000    -0.296000000
H    -8.312000000     0.662000000    -1.489000000
O    -1.939000000    -1.322000000     4.632000000
H    -2.223000000    -0.761000000     3.910000000
H    -1.906000000    -2.200000000     4.254000000
O     5.445000000     1.849000000     0.391000000
H     5.380000000     2.507000000    -0.301000000
H     4.767000000     2.095000000     1.020000000
O    -5.485000000    -1.456000000    -5.249000000
H    -4.983000000    -1.344000000    -4.442000000
H    -5.202000000    -2.303000000    -5.592000000
O    -3.174000000    -4.623000000     1.430000000
H    -2.944000000    -3.774000000     1.052000000
H    -2.625000000    -4.696000000     2.211000000
O     3.144000000     3.907000000    -2.147000000
H     4.042000000     3.852000000    -2.473000000
H     2.679000000     3.209000000    -2.608000000
O     0.661000000    -1.094000000    -3.994000000
H     1.025000000    -0.318000000    -3.568000000
H    -0.286000000    -1.001000000    -3.892000000
O     2.738000000     1.122000000     5.096000000
H     2.628000000     0.210000000     4.825000000
H     2.005000000     1.583000000     4.688000000
O    -4.551000000     1.189000000    -1.930000000
H    -4.252000000     0.321000000    -1.658000000
H    -4.625000000     1.128000000    -2.883000000
O     0.296000000    -3.902000000    -1.167000000
H    -0.641000000    -3.868000000    -1.363000000
H     0.357000000    -3.653000000    -0.245000000
O     6.217000000     5.005000000    -1.063000000
H     5.940000000     4.336000000    -1.688000000
H     5.415000000     5.247000000    -0.599000000
O    -7.821000000    -2.020000000    -2.488000000
H    -7.442000000    -2.157000000    -1.620000000
H    -7.634000000    -2.830000000    -2.962000000
O    -2.618000000     3.227000000    -2.963000000
H    -3.143000000     2.562000000    -2.517000000
H    -3.262000000     3.827000000    -3.339000000
O     1.090000000    -6.695000000    -1.185000000
H     0.858000000    -5.779000000    -1.033000000
H     1.732000000    -6.896000000    -0.504000000
O    -3.874000000     1.364000000    -4.901000000
H    -3.824000000     2.292000000    -5.131000000
H    -3.946000000     0.912000000    -5.742000000
O     1.421000000     5.113000000    -0.253000000
H     0.838000000     5.580000000    -0.852000000
H     1.999000000     4.609000000    -0.825000000
O    -0.591000000    -3.647000000     3.702000000
H    -0.867000000    -4.245000000     4.396000000
H     0.170000000    -4.074000000     3.307000000
O     3.658000000     6.949000000    -0.380000000
H     3.995000000     7.351000000     0.421000000
H     2.928000000     6.405000000    -0.085000000
O    -6.010000000    -2.664000000     2.301000000
H    -6.009000000    -3.314000000     3.004000000
H    -5.876000000    -3.174000000     1.502000000
O    -2.376000000    -3.925000000    -2.586000000
H    -2.462000000    -3.783000000    -3.529000000
H    -2.802000000    -3.165000000    -2.189000000
O     0.186000000    -1.370000000     6.428000000
H     0.924000000    -1.405000000     5.820000000
H    -0.588000000    -1.375000000     5.866000000
O     1.167000000    -4.900000000     1.948000000
H     2.026000000    -4.487000000     2.040000000
H     1.355000000    -5.762000000     1.577000000
O     6.047000000     2.572000000    -2.560000000
H     5.584000000     2.507000000    -3.396000000
H     6.487000000     1.727000000    -2.464000000
O    -0.610000000     2.915000000    -5.134000000
H    -1.118000000     2.885000000    -4.323000000
H     0.223000000     3.312000000    -4.880000000
O    -5.611000000    -3.064000000    -0.938000000
H    -4.719000000    -2.947000000    -0.613000000
H    -5.521000000    -3.668000000    -1.675000000
O     3.963000000     0.193000000    -4.193000000
H     4.758000000    -0.110000000    -3.754000000
H     4.254000000     0.439000000    -5.071000000
O     6.260000000    -0.124000000     3.829000000
H     6.862000000     0.583000000     3.596000000
H     5.939000000    -0.452000000     2.989000000
O    -5.471000000    -6.090000000     1.954000000
H    -4.719000000    -5.506000000     1.861000000
H    -5.402000000    -6.430000000     2.846000000
