158
-3042.93077
C    -0.768000000    -0.368000000     1.258000000
H    -1.282000000    -0.437000000     2.213000000
C     0.593000000    -0.082000000     1.162000000
H     1.180000000    -0.055000000     2.076000000
C     1.196000000     0.246000000    -0.023000000
H     2.257000000     0.374000000    -0.038000000
C     0.451000000     0.250000000    -1.174000000
H     0.908000000     0.596000000    -2.098000000
C    -0.873000000    -0.097000000    -1.161000000
H    -1.422000000    -0.084000000    -2.100000000
C    -1.460000000    -0.425000000     0.051000000
C    -2.899000000    -0.950000000    -0.022000000
O    -3.333000000    -1.549000000     0.928000000
O    -3.590000000    -0.736000000    -0.996000000
O    -4.598000000     3.467000000    -2.721000000
H    -4.580000000     2.594000000    -3.113000000
H    -3.733000000     3.569000000    -2.323000000
O    -1.859000000     1.201000000     5.212000000
H    -1.545000000     0.680000000     5.952000000
H    -1.518000000     2.080000000     5.376000000
O     0.443000000     3.094000000     2.621000000
H     0.296000000     3.280000000     1.694000000
H    -0.348000000     2.634000000     2.902000000
O     6.073000000    -1.879000000     0.533000000
H     6.844000000    -1.480000000     0.938000000
H     6.330000000    -2.787000000     0.372000000
O     1.932000000     2.644000000    -4.864000000
H     1.653000000     2.762000000    -3.956000000
H     1.118000000     2.509000000    -5.349000000
O     0.818000000    -1.302000000    -4.242000000
H     1.770000000    -1.232000000    -4.184000000
H     0.650000000    -2.241000000    -4.316000000
O     3.366000000    -0.778000000     3.922000000
H     2.690000000    -1.081000000     4.528000000
H     3.120000000    -1.159000000     3.079000000
O    -6.850000000     3.123000000    -1.026000000
H    -6.085000000     3.019000000    -1.591000000
H    -7.517000000     3.507000000    -1.594000000
O     6.325000000     4.394000000    -2.343000000
H     6.261000000     3.893000000    -3.156000000
H     5.434000000     4.702000000    -2.180000000
O     7.674000000     0.832000000    -2.235000000
H     8.389000000     0.494000000    -1.696000000
H     6.887000000     0.680000000    -1.711000000
O     3.525000000     2.740000000    -0.471000000
H     4.133000000     2.001000000    -0.489000000
H     3.259000000     2.810000000     0.446000000
O     2.918000000    -2.915000000    -1.873000000
H     2.801000000    -3.103000000    -2.804000000
H     2.031000000    -2.925000000    -1.513000000
O    -0.381000000    -4.785000000    -1.859000000
H     0.153000000    -5.489000000    -1.491000000
H    -0.144000000    -4.011000000    -1.347000000
O     6.478000000     2.584000000     0.496000000
H     6.344000000     1.831000000    -0.080000000
H     5.908000000     3.265000000     0.136000000
O    -5.908000000     1.625000000     2.546000000
H    -5.215000000     0.966000000     2.510000000
H    -6.678000000     1.182000000     2.188000000
O    -1.208000000     3.303000000    -1.008000000
H    -1.338000000     2.355000000    -1.022000000
H    -0.534000000     3.462000000    -1.668000000
O     3.263000000    -1.989000000     1.398000000
H     4.166000000    -1.953000000     1.083000000
H     2.758000000    -2.292000000     0.643000000
O     1.127000000    -1.598000000     5.933000000
H     0.609000000    -0.967000000     6.433000000
H     0.485000000    -2.225000000     5.601000000
O     1.889000000     4.881000000     4.345000000
H     2.763000000     4.527000000     4.510000000
H     1.409000000     4.158000000     3.941000000
O     3.884000000     5.592000000    -1.855000000
H     3.003000000     5.962000000    -1.798000000
H     4.272000000     5.762000000    -0.997000000
O     2.475000000     1.821000000     5.935000000
H     3.271000000     2.253000000     5.625000000
H     2.771000000     0.965000000     6.243000000
O    -0.736000000     2.739000000    -5.927000000
H    -0.878000000     3.633000000    -5.614000000
H    -1.172000000     2.711000000    -6.779000000
O    -0.786000000    -3.564000000     4.867000000
H    -1.374000000    -4.318000000     4.894000000
H    -1.286000000    -2.856000000     5.274000000
O    -4.786000000     2.589000000     4.983000000
H    -3.995000000     2.101000000     4.754000000
H    -5.309000000     2.588000000     4.181000000
O    -4.350000000    -2.363000000    -3.296000000
H    -5.058000000    -1.882000000    -3.726000000
H    -4.285000000    -1.968000000    -2.427000000
O    -3.541000000    -6.011000000     0.368000000
H    -2.828000000    -5.403000000     0.563000000
H    -4.220000000    -5.464000000    -0.029000000
O    -8.105000000     0.892000000     1.037000000
H    -7.631000000     0.700000000     0.228000000
H    -8.731000000     1.573000000     0.793000000
O    -6.396000000    -0.175000000    -1.213000000
H    -5.605000000    -0.266000000    -0.682000000
H    -6.128000000     0.372000000    -1.951000000
O    -2.059000000    -3.868000000     1.734000000
H    -2.387000000    -3.924000000     2.632000000
H    -2.457000000    -3.071000000     1.383000000
O    -5.343000000    -0.485000000     5.270000000
H    -5.242000000     0.467000000     5.249000000
H    -5.409000000    -0.739000000     4.350000000
O     0.780000000    -3.113000000     0.051000000
H     0.657000000    -2.193000000     0.283000000
H     0.189000000    -3.589000000     0.635000000
O     4.324000000     3.734000000     5.071000000
H     4.851000000     2.998000000     4.760000000
H     4.962000000     4.352000000     5.427000000
O     3.766000000    -4.391000000     3.352000000
H     2.823000000    -4.233000000     3.329000000
H     4.093000000    -4.012000000     2.536000000
O    -1.923000000     0.329000000    -4.769000000
H    -1.296000000    -0.344000000    -4.505000000
H    -1.491000000     0.790000000    -5.488000000
O     4.069000000     0.300000000    -3.702000000
H     3.290000000     0.847000000    -3.605000000
H     4.752000000     0.906000000    -3.992000000
O    -2.932000000    -4.815000000    -3.165000000
H    -2.110000000    -4.795000000    -2.674000000
H    -3.436000000    -4.078000000    -2.818000000
O    -5.116000000    -0.832000000     2.567000000
H    -5.861000000    -1.361000000     2.282000000
H    -4.411000000    -1.068000000     1.964000000
O    -4.708000000    -3.659000000    -0.433000000
H    -4.383000000    -2.801000000    -0.162000000
H    -5.655000000    -3.609000000    -0.301000000
O     2.907000000     2.561000000     2.332000000
H     3.375000000     2.138000000     3.052000000
H     2.001000000     2.618000000     2.636000000
O    -4.929000000    -4.402000000     3.683000000
H    -4.773000000    -3.776000000     4.391000000
H    -5.302000000    -3.876000000     2.976000000
O    -6.492000000    -0.654000000    -4.648000000
H    -7.167000000     0.003000000    -4.479000000
H    -6.838000000    -1.172000000    -5.375000000
O     5.257000000     0.634000000    -1.145000000
H     5.214000000    -0.035000000    -0.462000000
H     4.682000000     0.306000000    -1.837000000
O     1.436000000     3.260000000    -2.225000000
H     1.830000000     4.053000000    -2.590000000
H     2.001000000     3.031000000    -1.487000000
O     5.089000000     1.161000000     3.663000000
H     4.724000000     0.315000000     3.923000000
H     5.262000000     1.069000000     2.726000000
O     3.650000000    -2.433000000    -4.884000000
H     4.135000000    -1.795000000    -4.359000000
H     4.242000000    -3.180000000    -4.960000000
O    -4.148000000     0.957000000    -3.161000000
H    -3.989000000     0.399000000    -2.399000000
H    -3.567000000     0.608000000    -3.837000000
O    -3.203000000    -2.379000000     5.426000000
H    -3.315000000    -2.265000000     6.370000000
H    -3.828000000    -1.769000000     5.035000000
O    -7.194000000    -2.719000000     2.261000000
H    -7.207000000    -3.363000000     1.553000000
H    -8.010000000    -2.870000000     2.737000000
