158
-3045.45567
C     0.008000000    -1.239000000     0.813000000
H     0.051000000    -2.084000000     1.495000000
C     0.859000000    -0.093000000     0.958000000
H     1.540000000    -0.077000000     1.806000000
C     0.731000000     1.003000000     0.120000000
H     1.313000000     1.839000000     0.320000000
C    -0.205000000     0.987000000    -0.934000000
H    -0.409000000     1.884000000    -1.512000000
C    -0.963000000    -0.188000000    -1.139000000
H    -1.764000000    -0.165000000    -1.874000000
C    -0.901000000    -1.245000000    -0.279000000
C    -1.692000000    -2.581000000    -0.471000000
O    -1.585000000    -3.413000000     0.435000000
O    -2.498000000    -2.727000000    -1.404000000
O    -5.445000000     2.561000000    -1.407000000
H    -5.565000000     1.645000000    -1.155000000
H    -6.264000000     2.798000000    -1.844000000
O    -1.700000000    -6.112000000    -3.364000000
H    -1.969000000    -6.729000000    -4.044000000
H    -2.492000000    -5.965000000    -2.846000000
O    -1.920000000    -0.477000000     4.324000000
H    -2.130000000    -1.393000000     4.141000000
H    -2.052000000    -0.030000000     3.488000000
O    -2.117000000     1.314000000     2.146000000
H    -1.759000000     2.147000000     2.453000000
H    -1.559000000     1.072000000     1.406000000
O    -1.105000000     3.517000000    -4.553000000
H    -1.497000000     3.981000000    -3.813000000
H    -0.223000000     3.294000000    -4.255000000
O     3.584000000    -3.784000000     0.400000000
H     3.675000000    -4.613000000    -0.069000000
H     2.656000000    -3.564000000     0.320000000
O     4.707000000    -0.225000000     0.336000000
H     5.168000000    -0.786000000     0.959000000
H     5.399000000     0.150000000    -0.208000000
O    -0.615000000     1.466000000     5.893000000
H    -0.954000000     0.903000000     5.197000000
H    -1.027000000     2.315000000     5.736000000
O     2.665000000    -0.749000000     4.157000000
H     1.891000000    -1.298000000     4.283000000
H     2.314000000     0.128000000     4.002000000
O     4.038000000     7.420000000    -1.254000000
H     3.564000000     6.621000000    -1.486000000
H     4.449000000     7.219000000    -0.413000000
O     3.589000000     4.568000000    -2.246000000
H     4.269000000     3.896000000    -2.199000000
H     3.098000000     4.470000000    -1.431000000
O     2.539000000    -0.822000000    -1.378000000
H     3.179000000    -0.698000000    -0.677000000
H     1.719000000    -0.487000000    -1.015000000
O     2.260000000     4.823000000     0.015000000
H     1.347000000     4.947000000     0.274000000
H     2.652000000     4.338000000     0.741000000
O     3.981000000     0.411000000    -3.520000000
H     3.469000000     0.371000000    -2.712000000
H     3.348000000     0.664000000    -4.192000000
O    -6.819000000    -2.030000000     0.493000000
H    -5.944000000    -1.809000000     0.174000000
H    -6.753000000    -2.947000000     0.759000000
O     0.588000000    -6.748000000    -0.563000000
H     0.203000000    -6.986000000    -1.406000000
H     1.064000000    -7.531000000    -0.287000000
O    -3.010000000     3.315000000     0.133000000
H    -3.923000000     3.192000000    -0.128000000
H    -2.963000000     2.951000000     1.017000000
O     2.036000000    -3.555000000    -2.758000000
H     1.883000000    -4.188000000    -2.057000000
H     2.079000000    -2.709000000    -2.312000000
O    -2.578000000    -3.276000000     4.206000000
H    -2.939000000    -3.174000000     5.086000000
H    -2.251000000    -4.176000000     4.184000000
O     0.685000000     4.811000000    -2.752000000
H     0.476000000     5.027000000    -1.843000000
H     1.582000000     4.480000000    -2.718000000
O     3.453000000     3.596000000     2.287000000
H     4.249000000     3.182000000     1.954000000
H     3.688000000     4.518000000     2.389000000
O     2.336000000    -5.029000000     2.944000000
H     2.809000000    -5.862000000     2.946000000
H     2.980000000    -4.389000000     2.643000000
O    -1.347000000     6.391000000     2.489000000
H    -1.479000000     6.721000000     3.378000000
H    -1.741000000     7.057000000     1.926000000
O     4.909000000    -0.686000000     5.644000000
H     4.182000000    -0.967000000     5.088000000
H     5.546000000    -0.312000000     5.034000000
O     0.415000000    -2.120000000     4.697000000
H    -0.131000000    -1.339000000     4.782000000
H    -0.072000000    -2.689000000     4.101000000
O    -2.800000000    -2.245000000    -4.202000000
H    -2.310000000    -2.409000000    -3.396000000
H    -2.617000000    -1.330000000    -4.412000000
O    -2.105000000    -6.287000000     0.517000000
H    -1.841000000    -5.415000000     0.809000000
H    -1.363000000    -6.602000000     0.000000000
O    -2.782000000    -4.286000000    -5.860000000
H    -2.664000000    -3.723000000    -6.626000000
H    -2.944000000    -3.678000000    -5.139000000
O    -0.068000000    -1.578000000    -5.627000000
H     0.095000000    -2.413000000    -5.188000000
H    -1.022000000    -1.503000000    -5.650000000
O    -4.392000000    -0.852000000    -0.952000000
H    -3.759000000    -1.569000000    -0.999000000
H    -4.681000000    -0.728000000    -1.856000000
O     0.903000000    -4.134000000     0.247000000
H     0.741000000    -5.067000000     0.103000000
H     0.065000000    -3.791000000     0.559000000
O     5.739000000     2.202000000     1.595000000
H     5.931000000     1.364000000     1.174000000
H     6.387000000     2.272000000     2.295000000
O    -1.180000000     3.714000000     2.973000000
H    -0.647000000     4.323000000     2.463000000
H    -1.642000000     4.268000000     3.601000000
O    -5.286000000    -3.550000000    -2.989000000
H    -4.674000000    -2.820000000    -3.083000000
H    -4.803000000    -4.204000000    -2.484000000
O    -0.851000000     4.909000000    -0.245000000
H    -1.546000000     4.251000000    -0.218000000
H    -1.108000000     5.556000000     0.411000000
O    -2.571000000     0.216000000    -4.737000000
H    -3.148000000     0.910000000    -5.057000000
H    -1.705000000     0.455000000    -5.066000000
O     3.946000000     4.847000000    -4.879000000
H     3.661000000     4.904000000    -3.967000000
H     4.895000000     4.734000000    -4.827000000
O    -0.345000000    -5.211000000     3.738000000
H     0.578000000    -5.212000000     3.487000000
H    -0.560000000    -6.134000000     3.867000000
O    -0.138000000    -4.002000000    -4.324000000
H     0.608000000    -4.082000000    -3.729000000
H    -0.813000000    -4.559000000    -3.937000000
O    -3.830000000    -3.853000000     1.778000000
H    -3.692000000    -3.591000000     2.688000000
H    -2.990000000    -3.687000000     1.350000000
O     4.412000000    -2.278000000     2.630000000
H     3.640000000    -1.799000000     2.931000000
H     4.195000000    -2.542000000     1.736000000
O    -3.520000000    -5.134000000    -1.466000000
H    -2.983000000    -5.794000000    -1.026000000
H    -3.248000000    -4.304000000    -1.074000000
O     1.859000000     1.981000000     3.482000000
H     1.089000000     2.513000000     3.282000000
H     2.594000000     2.478000000     3.122000000
O    -3.919000000    -7.335000000     2.267000000
H    -4.593000000    -7.477000000     1.603000000
H    -3.196000000    -6.927000000     1.791000000
O    -5.405000000    -6.741000000    -3.104000000
H    -6.208000000    -6.359000000    -3.459000000
H    -5.201000000    -6.203000000    -2.339000000
O    -4.033000000     3.660000000    -3.518000000
H    -4.355000000     3.117000000    -2.798000000
H    -4.300000000     4.549000000    -3.285000000
O    -5.184000000    -0.305000000    -3.501000000
H    -5.826000000    -0.681000000    -4.103000000
H    -4.348000000    -0.385000000    -3.960000000
O    -6.253000000    -4.563000000     0.831000000
H    -6.526000000    -5.368000000     1.270000000
H    -5.329000000    -4.466000000     1.061000000
