158
-3030.34707
C    -0.178000000    -1.476000000    -0.057000000
H    -0.128000000    -2.543000000    -0.254000000
C     1.059000000    -0.801000000    -0.324000000
H     1.807000000    -1.365000000    -0.876000000
C     1.074000000     0.586000000    -0.200000000
H     2.030000000     1.050000000    -0.333000000
C    -0.065000000     1.226000000     0.274000000
H    -0.052000000     2.313000000     0.281000000
C    -1.236000000     0.538000000     0.610000000
H    -2.067000000     1.121000000     0.998000000
C    -1.355000000    -0.830000000     0.346000000
C    -2.683000000    -1.573000000     0.328000000
O    -2.747000000    -2.763000000     0.582000000
O    -3.743000000    -0.956000000     0.247000000
O    -3.317000000    -2.045000000    -3.914000000
H    -3.929000000    -1.435000000    -3.501000000
H    -3.831000000    -2.475000000    -4.597000000
O    -7.421000000    -1.083000000     0.555000000
H    -8.261000000    -0.727000000     0.265000000
H    -7.100000000    -0.448000000     1.195000000
O    -2.081000000    -3.518000000     2.895000000
H    -2.280000000    -3.153000000     2.033000000
H    -2.886000000    -3.961000000     3.160000000
O    -0.351000000    -2.223000000     4.726000000
H     0.416000000    -1.895000000     4.256000000
H    -0.884000000    -2.643000000     4.051000000
O    -3.047000000     3.597000000     2.811000000
H    -2.346000000     2.970000000     2.992000000
H    -2.954000000     3.797000000     1.879000000
O     0.150000000    -6.584000000     0.650000000
H    -0.601000000    -6.005000000     0.516000000
H     0.784000000    -6.310000000    -0.014000000
O    -0.862000000     7.288000000    -1.526000000
H    -1.727000000     7.224000000    -1.121000000
H    -0.320000000     6.675000000    -1.031000000
O     4.406000000    -2.003000000     1.986000000
H     3.851000000    -2.449000000     2.626000000
H     4.933000000    -2.701000000     1.598000000
O     7.408000000     1.952000000    -2.430000000
H     6.933000000     2.490000000    -1.796000000
H     6.730000000     1.419000000    -2.846000000
O     5.096000000    -0.476000000    -2.495000000
H     4.259000000    -0.887000000    -2.710000000
H     5.397000000    -0.098000000    -3.322000000
O    -4.257000000    -5.080000000     3.614000000
H    -5.181000000    -5.064000000     3.365000000
H    -4.237000000    -4.681000000     4.484000000
O     1.862000000    -0.381000000     2.798000000
H     2.768000000    -0.672000000     2.692000000
H     1.403000000    -0.747000000     2.042000000
O     2.500000000     6.098000000    -2.025000000
H     1.751000000     5.782000000    -1.519000000
H     2.934000000     6.724000000    -1.445000000
O    -4.489000000     1.429000000    -0.458000000
H    -4.197000000     0.573000000    -0.144000000
H    -5.372000000     1.273000000    -0.793000000
O     2.180000000     3.452000000     1.487000000
H     3.048000000     3.074000000     1.347000000
H     1.791000000     2.913000000     2.175000000
O    -4.613000000     1.994000000     4.408000000
H    -3.891000000     2.463000000     3.989000000
H    -4.239000000     1.149000000     4.654000000
O     1.400000000    -3.731000000    -3.518000000
H     1.441000000    -3.630000000    -4.469000000
H     0.532000000    -4.099000000    -3.354000000
O    -1.554000000     1.661000000     3.675000000
H    -1.853000000     0.881000000     4.144000000
H    -0.620000000     1.509000000     3.528000000
O     0.851000000     5.431000000     0.281000000
H     0.800000000     6.140000000     0.922000000
H     1.323000000     4.732000000     0.734000000
O     8.010000000    -0.719000000    -0.863000000
H     7.968000000    -0.304000000    -0.002000000
H     7.383000000    -0.229000000    -1.396000000
O    -7.234000000    -5.751000000    -0.519000000
H    -6.728000000    -5.098000000    -0.037000000
H    -7.547000000    -5.287000000    -1.296000000
O     5.125000000     3.766000000    -1.345000000
H     5.181000000     3.239000000    -0.549000000
H     5.442000000     4.631000000    -1.083000000
O    -2.801000000    -0.577000000     4.582000000
H    -2.026000000    -1.137000000     4.532000000
H    -3.383000000    -0.913000000     3.900000000
O     1.194000000     1.936000000     3.816000000
H     1.483000000     1.854000000     4.725000000
H     1.405000000     1.091000000     3.420000000
O    -1.866000000    -5.114000000     0.072000000
H    -1.896000000    -4.165000000    -0.048000000
H    -2.595000000    -5.304000000     0.663000000
O     0.563000000     1.389000000    -3.741000000
H    -0.207000000     1.820000000    -3.371000000
H     1.299000000     1.934000000    -3.462000000
O     1.584000000    -5.245000000    -1.138000000
H     1.497000000    -4.477000000    -1.703000000
H     2.516000000    -5.280000000    -0.923000000
O     4.511000000     0.398000000     0.225000000
H     4.427000000    -0.191000000     0.975000000
H     4.676000000    -0.182000000    -0.518000000
O     4.227000000     4.889000000    -4.678000000
H     4.077000000     4.103000000    -5.204000000
H     3.762000000     4.721000000    -3.858000000
O    -0.684000000    -5.428000000    -2.899000000
H    -0.243000000    -5.342000000    -2.054000000
H    -0.577000000    -6.350000000    -3.133000000
O    -3.868000000     4.083000000     0.044000000
H    -4.675000000     4.417000000    -0.348000000
H    -3.868000000     3.149000000    -0.167000000
O    -6.913000000     0.562000000     2.948000000
H    -7.805000000     0.838000000     3.161000000
H    -6.464000000     1.371000000     2.703000000
O     2.370000000     4.537000000     4.668000000
H     2.306000000     3.724000000     4.166000000
H     1.516000000     4.623000000     5.093000000
O     1.387000000     2.862000000    -6.172000000
H     1.165000000     2.324000000    -5.412000000
H     0.596000000     2.855000000    -6.710000000
O     2.674000000     3.279000000    -2.669000000
H     2.535000000     4.210000000    -2.499000000
H     3.506000000     3.078000000    -2.239000000
O     6.855000000    -1.023000000     2.790000000
H     7.071000000    -0.108000000     2.611000000
H     5.931000000    -1.101000000     2.554000000
O    -3.802000000    -5.130000000    -1.989000000
H    -2.889000000    -5.070000000    -1.705000000
H    -4.288000000    -4.622000000    -1.340000000
O     4.607000000     2.551000000     2.095000000
H     5.464000000     2.855000000     2.394000000
H     4.792000000     1.735000000     1.630000000
O    -0.496000000    -5.732000000     3.404000000
H     0.066000000    -5.766000000     2.630000000
H    -1.147000000    -5.061000000     3.197000000
O     4.876000000     2.083000000     4.984000000
H     4.675000000     2.495000000     4.144000000
H     5.771000000     2.363000000     5.180000000
O     4.228000000     2.318000000    -5.777000000
H     4.683000000     1.581000000    -5.370000000
H     3.489000000     1.919000000    -6.236000000
O    -5.396000000    -1.204000000    -1.986000000
H    -6.245000000    -1.412000000    -1.595000000
H    -4.818000000    -1.051000000    -1.239000000
O    -8.093000000    -3.219000000     2.045000000
H    -9.047000000    -3.306000000     2.057000000
H    -7.920000000    -2.583000000     1.351000000
O    -0.807000000    -0.812000000    -4.616000000
H    -1.454000000    -1.163000000    -4.004000000
H    -0.386000000    -0.099000000    -4.137000000
O    -4.565000000    -1.513000000     2.785000000
H    -4.313000000    -1.236000000     1.904000000
H    -5.502000000    -1.326000000     2.836000000
O    -2.095000000     1.477000000    -2.450000000
H    -3.044000000     1.380000000    -2.523000000
H    -1.883000000     1.122000000    -1.587000000
O     2.516000000    -0.802000000    -3.343000000
H     2.291000000    -1.689000000    -3.621000000
H     1.719000000    -0.294000000    -3.497000000
O    -5.182000000    -3.809000000     0.083000000
H    -5.728000000    -3.026000000     0.018000000
H    -4.304000000    -3.475000000     0.264000000
