158
-3015.74457
C     0.611000000    -1.380000000    -0.071000000
H     1.031000000    -2.382000000    -0.028000000
C     1.318000000    -0.165000000     0.179000000
H     2.399000000    -0.167000000     0.290000000
C     0.643000000     1.068000000     0.179000000
H     1.108000000     1.990000000     0.457000000
C    -0.752000000     1.022000000     0.029000000
H    -1.189000000     2.016000000     0.076000000
C    -1.468000000    -0.151000000    -0.122000000
H    -2.549000000    -0.163000000    -0.229000000
C    -0.805000000    -1.380000000    -0.294000000
C    -1.565000000    -2.684000000    -0.577000000
O    -1.022000000    -3.763000000    -0.712000000
O    -2.787000000    -2.727000000    -0.601000000
O     6.204000000    -1.623000000     0.078000000
H     5.381000000    -1.570000000    -0.406000000
H     6.445000000    -0.710000000     0.240000000
O    -3.608000000     1.716000000    -4.196000000
H    -3.464000000     2.450000000    -3.599000000
H    -4.222000000     1.147000000    -3.733000000
O    -2.899000000    -7.097000000    -2.400000000
H    -2.355000000    -6.313000000    -2.321000000
H    -2.974000000    -7.428000000    -1.505000000
O    -7.019000000    -0.770000000    -0.778000000
H    -6.294000000    -1.038000000    -0.214000000
H    -7.245000000    -1.559000000    -1.270000000
O    -0.853000000    -3.011000000     4.411000000
H    -0.189000000    -2.495000000     3.953000000
H    -1.332000000    -3.458000000     3.713000000
O    -1.973000000    -0.544000000     3.040000000
H    -1.557000000    -1.063000000     3.729000000
H    -1.243000000    -0.212000000     2.517000000
O     1.402000000    -6.480000000     1.049000000
H     1.896000000    -5.939000000     1.665000000
H     1.878000000    -7.310000000     1.024000000
O    -4.359000000    -1.754000000    -2.544000000
H    -4.876000000    -0.966000000    -2.374000000
H    -3.685000000    -1.750000000    -1.864000000
O     3.850000000    -1.806000000    -1.384000000
H     3.846000000    -2.741000000    -1.179000000
H     3.436000000    -1.749000000    -2.245000000
O     2.858000000    -2.049000000     2.127000000
H     3.043000000    -2.545000000     1.329000000
H     2.999000000    -2.675000000     2.837000000
O     1.799000000     1.437000000     4.080000000
H     2.275000000     1.476000000     3.251000000
H     2.408000000     1.798000000     4.724000000
O     4.007000000    -4.816000000    -1.909000000
H     4.090000000    -5.739000000    -1.670000000
H     4.881000000    -4.566000000    -2.208000000
O     0.747000000    -1.088000000     3.434000000
H     1.048000000    -0.243000000     3.769000000
H     1.461000000    -1.391000000     2.874000000
O    -0.968000000     5.669000000    -0.753000000
H    -1.295000000     4.845000000    -1.113000000
H    -0.811000000     5.481000000     0.173000000
O    -4.712000000    -1.442000000     0.425000000
H    -4.041000000    -1.955000000    -0.026000000
H    -4.605000000    -1.667000000     1.349000000
O     5.659000000     0.810000000    -2.666000000
H     6.572000000     0.674000000    -2.919000000
H     5.202000000     0.035000000    -2.992000000
O     4.576000000     4.264000000     3.703000000
H     4.433000000     3.641000000     4.415000000
H     4.719000000     5.102000000     4.143000000
O    -3.833000000     3.241000000     0.337000000
H    -4.612000000     3.792000000     0.413000000
H    -3.783000000     2.780000000     1.174000000
O    -0.948000000    -8.158000000     2.266000000
H    -1.257000000    -7.412000000     1.753000000
H    -0.026000000    -8.251000000     2.023000000
O    -3.802000000    -6.353000000     2.458000000
H    -3.761000000    -6.372000000     3.414000000
H    -3.031000000    -5.851000000     2.195000000
O    -0.443000000     2.547000000    -3.712000000
H    -1.200000000     2.684000000    -3.143000000
H    -0.076000000     3.422000000    -3.838000000
O    -0.487000000     6.197000000     2.218000000
H    -0.202000000     7.102000000     2.092000000
H     0.093000000     5.855000000     2.899000000
O     6.608000000     3.082000000     2.057000000
H     6.923000000     3.909000000     1.692000000
H     5.805000000     3.317000000     2.523000000
O     2.473000000     5.304000000    -3.259000000
H     1.819000000     5.409000000    -3.950000000
H     2.729000000     4.383000000    -3.309000000
O     3.801000000     4.524000000     1.231000000
H     3.578000000     3.608000000     1.066000000
H     4.148000000     4.530000000     2.123000000
O    -0.932000000    -4.999000000     1.640000000
H    -1.188000000    -4.569000000     0.824000000
H    -0.111000000    -5.443000000     1.430000000
O     3.570000000     3.043000000    -3.901000000
H     3.467000000     2.648000000    -4.767000000
H     4.276000000     2.541000000    -3.492000000
O    -3.302000000     6.153000000     2.453000000
H    -2.487000000     5.722000000     2.195000000
H    -3.145000000     7.082000000     2.286000000
O     0.938000000    -3.089000000    -3.361000000
H     0.019000000    -2.839000000    -3.457000000
H     1.175000000    -2.795000000    -2.481000000
O     3.822000000     0.668000000     2.502000000
H     3.629000000    -0.199000000     2.147000000
H     4.153000000     1.165000000     1.754000000
O    -5.821000000     0.612000000    -2.922000000
H    -6.206000000     0.610000000    -2.045000000
H    -6.542000000     0.368000000    -3.501000000
O     0.071000000    -6.185000000    -1.438000000
H    -0.253000000    -5.288000000    -1.364000000
H     0.639000000    -6.298000000    -0.676000000
O    -4.705000000     1.089000000     2.185000000
H    -4.211000000     0.380000000     2.596000000
H    -5.050000000     0.705000000     1.379000000
O    -4.519000000    -1.599000000     3.168000000
H    -3.607000000    -1.324000000     3.264000000
H    -4.708000000    -2.088000000     3.969000000
O    -2.710000000     3.675000000    -2.270000000
H    -3.140000000     3.421000000    -1.454000000
H    -3.171000000     4.466000000    -2.548000000
O     3.480000000     6.537000000    -0.537000000
H     3.579000000     5.796000000     0.060000000
H     3.094000000     6.159000000    -1.327000000
O     1.594000000     6.002000000     4.336000000
H     1.764000000     5.545000000     5.160000000
H     2.365000000     5.821000000     3.798000000
O     2.030000000    -5.047000000     3.440000000
H     2.433000000    -4.261000000     3.809000000
H     1.135000000    -5.040000000     3.780000000
O    -6.782000000    -5.139000000     1.710000000
H    -6.091000000    -5.254000000     1.058000000
H    -6.323000000    -4.847000000     2.498000000
O    -2.013000000    -4.643000000    -3.010000000
H    -1.739000000    -4.246000000    -2.183000000
H    -1.795000000    -3.988000000    -3.673000000
O     3.977000000    -4.582000000     0.913000000
H     3.963000000    -4.573000000    -0.044000000
H     4.449000000    -5.384000000     1.139000000
O     1.638000000     7.986000000     1.039000000
H     2.299000000     7.346000000     0.771000000
H     1.538000000     8.559000000     0.280000000
O    -6.575000000    -3.481000000    -1.667000000
H    -5.757000000    -3.053000000    -1.922000000
H    -7.026000000    -3.647000000    -2.495000000
O    -1.936000000    -2.121000000    -4.272000000
H    -2.286000000    -2.163000000    -5.162000000
H    -2.677000000    -1.837000000    -3.737000000
O    -4.701000000    -4.688000000    -0.046000000
H    -3.893000000    -4.196000000    -0.191000000
H    -5.338000000    -4.281000000    -0.632000000
O     4.543000000     2.040000000     0.131000000
H     4.425000000     1.712000000    -0.761000000
H     5.433000000     2.394000000     0.140000000
O     5.980000000    -0.588000000     4.012000000
H     6.074000000    -0.524000000     4.962000000
H     5.235000000    -0.024000000     3.806000000
O     1.462000000    -6.154000000    -3.947000000
H     0.937000000    -6.125000000    -3.148000000
H     2.368000000    -6.148000000    -3.639000000
