158
-3079.87409
C     0.229000000    -0.964000000    -1.047000000
H     0.558000000    -1.628000000    -1.842000000
C     1.181000000    -0.147000000    -0.501000000
H     2.248000000    -0.196000000    -0.703000000
C     0.779000000     0.864000000     0.394000000
H     1.519000000     1.469000000     0.882000000
C    -0.464000000     0.786000000     0.909000000
H    -0.802000000     1.428000000     1.719000000
C    -1.438000000    -0.101000000     0.425000000
H    -2.456000000     0.029000000     0.782000000
C    -1.043000000    -1.029000000    -0.617000000
C    -1.968000000    -2.047000000    -1.197000000
O    -1.560000000    -3.078000000    -1.749000000
O    -3.141000000    -2.018000000    -0.846000000
O    -1.965000000    -2.028000000    -4.466000000
H    -2.514000000    -1.287000000    -4.210000000
H    -2.032000000    -2.640000000    -3.733000000
O    -7.103000000    -2.099000000    -0.125000000
H    -7.983000000    -2.196000000    -0.488000000
H    -7.124000000    -1.260000000     0.334000000
O    -1.447000000    -4.210000000     2.714000000
H    -1.420000000    -4.755000000     1.927000000
H    -1.052000000    -4.753000000     3.395000000
O    -0.824000000    -1.934000000     4.419000000
H    -0.114000000    -2.022000000     3.783000000
H    -1.374000000    -2.704000000     4.272000000
O    -2.857000000    -3.746000000    -6.513000000
H    -2.794000000    -2.974000000    -5.950000000
H    -2.536000000    -4.466000000    -5.970000000
O     1.906000000     6.920000000     1.423000000
H     1.715000000     6.636000000     2.317000000
H     1.970000000     6.107000000     0.922000000
O    -6.076000000    -0.826000000    -3.947000000
H    -6.913000000    -1.063000000    -4.347000000
H    -5.916000000    -1.515000000    -3.302000000
O     1.541000000    -4.747000000     2.190000000
H     1.152000000    -3.874000000     2.132000000
H     2.426000000    -4.639000000     1.845000000
O     3.851000000     0.791000000    -2.475000000
H     3.060000000     0.573000000    -2.968000000
H     4.570000000     0.495000000    -3.033000000
O     1.202000000    -1.723000000     2.270000000
H     2.032000000    -1.413000000     1.908000000
H     0.532000000    -1.277000000     1.752000000
O    -0.465000000     4.801000000    -0.450000000
H    -1.243000000     4.664000000     0.092000000
H     0.267000000     4.748000000     0.165000000
O    -4.605000000     0.491000000    -0.966000000
H    -3.918000000    -0.111000000    -0.678000000
H    -5.407000000     0.143000000    -0.577000000
O     1.371000000     3.269000000     3.489000000
H     2.210000000     2.876000000     3.249000000
H     0.853000000     2.540000000     3.829000000
O    -5.241000000     1.429000000     3.065000000
H    -4.794000000     2.106000000     2.557000000
H    -4.585000000     1.131000000     3.696000000
O     2.092000000    -3.086000000    -4.389000000
H     1.815000000    -3.026000000    -5.303000000
H     1.408000000    -3.603000000    -3.964000000
O    -2.513000000     2.661000000     3.890000000
H    -2.135000000     1.892000000     4.316000000
H    -2.742000000     3.247000000     4.611000000
O     2.064000000    -0.625000000     5.813000000
H     1.656000000    -1.429000000     6.134000000
H     1.399000000    -0.225000000     5.252000000
O     1.664000000     4.310000000     1.130000000
H     1.987000000     3.526000000     0.685000000
H     1.728000000     4.100000000     2.062000000
O     1.607000000    -5.984000000    -1.055000000
H     1.279000000    -6.677000000    -0.481000000
H     2.523000000    -6.214000000    -1.210000000
O     5.127000000     0.119000000     0.082000000
H     6.048000000     0.379000000     0.093000000
H     4.764000000     0.554000000    -0.690000000
O    -2.576000000    -7.775000000    -1.537000000
H    -3.262000000    -7.135000000    -1.349000000
H    -2.826000000    -8.154000000    -2.380000000
O     3.367000000     2.948000000    -0.756000000
H     3.441000000     2.274000000    -1.432000000
H     4.214000000     3.394000000    -0.769000000
O    -3.734000000    -0.306000000     4.891000000
H    -2.978000000    -0.857000000     5.092000000
H    -4.286000000    -0.364000000     5.670000000
O    -2.286000000     4.016000000     1.329000000
H    -2.355000000     3.781000000     2.255000000
H    -3.107000000     3.710000000     0.943000000
O    -0.134000000     0.960000000     5.099000000
H    -0.404000000     1.143000000     5.998000000
H    -0.421000000     0.060000000     4.941000000
O     4.553000000    -3.716000000    -3.863000000
H     4.441000000    -4.659000000    -3.979000000
H     3.679000000    -3.352000000    -4.004000000
O    -1.092000000    -5.478000000     0.338000000
H    -1.115000000    -4.670000000    -0.175000000
H    -1.837000000    -5.986000000     0.018000000
O    -0.977000000     2.701000000    -1.936000000
H    -1.222000000     2.033000000    -1.296000000
H    -0.643000000     3.427000000    -1.408000000
O     3.273000000    -3.493000000    -0.801000000
H     2.610000000    -3.942000000    -1.326000000
H     3.641000000    -2.836000000    -1.392000000
O     4.231000000    -1.444000000     2.104000000
H     4.240000000    -2.347000000     1.788000000
H     4.471000000    -0.920000000     1.340000000
O    -3.341000000     0.147000000    -3.497000000
H    -3.261000000     0.774000000    -2.778000000
H    -4.265000000    -0.102000000    -3.496000000
O     0.118000000    -4.504000000    -2.867000000
H    -0.520000000    -3.942000000    -2.428000000
H     0.354000000    -5.159000000    -2.210000000
O    -4.844000000     3.155000000     0.410000000
H    -5.640000000     3.565000000     0.071000000
H    -4.747000000     2.355000000    -0.107000000
O    -6.843000000     0.605000000     0.947000000
H    -7.736000000     0.892000000     1.140000000
H    -6.335000000     0.870000000     1.714000000
O     1.067000000     5.751000000     4.434000000
H     1.089000000     4.847000000     4.122000000
H     0.298000000     5.790000000     5.004000000
O    -1.732000000    -5.455000000    -4.797000000
H    -1.110000000    -4.982000000    -4.244000000
H    -2.525000000    -5.519000000    -4.265000000
O     1.870000000     5.461000000    -2.346000000
H     0.961000000     5.725000000    -2.200000000
H     1.997000000     4.710000000    -1.766000000
O     7.501000000     1.278000000     0.472000000
H     6.928000000     1.736000000     1.088000000
H     8.229000000     0.965000000     1.009000000
O     4.619000000    -1.142000000     4.801000000
H     3.778000000    -1.057000000     5.252000000
H     4.394000000    -1.138000000     3.871000000
O    -3.690000000    -4.879000000    -2.905000000
H    -3.153000000    -4.381000000    -2.289000000
H    -4.563000000    -4.494000000    -2.828000000
O     5.702000000     4.351000000    -0.458000000
H     6.497000000     4.393000000     0.072000000
H     5.279000000     5.199000000    -0.324000000
O     3.658000000     2.091000000     2.723000000
H     4.076000000     2.617000000     2.041000000
H     4.229000000     1.329000000     2.822000000
O    -5.418000000    -2.769000000    -2.104000000
H    -5.975000000    -2.625000000    -1.339000000
H    -4.547000000    -2.490000000    -1.822000000
O    -0.549000000    -0.887000000    -6.487000000
H    -0.912000000    -0.005000000    -6.563000000
H    -1.133000000    -1.334000000    -5.873000000
O    -4.207000000    -4.221000000     0.979000000
H    -4.508000000    -3.502000000     0.423000000
H    -3.444000000    -3.866000000     1.436000000
O     1.836000000    -0.198000000    -3.799000000
H     2.140000000    -1.093000000    -3.947000000
H     0.882000000    -0.271000000    -3.762000000
O     6.336000000     3.135000000     2.379000000
H     5.866000000     3.819000000     2.856000000
H     6.921000000     2.747000000     3.029000000
O    -4.594000000    -6.788000000     0.117000000
H    -4.526000000    -7.250000000     0.953000000
H    -4.549000000    -5.861000000     0.351000000
