158
-3050.71843
C    -1.266000000     0.156000000    -0.709000000
H    -2.147000000     0.115000000    -1.345000000
C    -0.130000000    -0.322000000    -1.317000000
H    -0.037000000    -0.696000000    -2.334000000
C     1.042000000    -0.334000000    -0.550000000
H     1.945000000    -0.729000000    -1.072000000
C     1.071000000     0.173000000     0.773000000
H     1.972000000     0.163000000     1.381000000
C    -0.172000000     0.554000000     1.343000000
H    -0.157000000     0.901000000     2.374000000
C    -1.385000000     0.578000000     0.628000000
C    -2.664000000     0.914000000     1.333000000
O    -3.636000000     1.019000000     0.616000000
O    -2.623000000     0.961000000     2.581000000
O     3.423000000    -4.155000000    -0.234000000
H     3.966000000    -3.444000000    -0.572000000
H     2.986000000    -3.780000000     0.531000000
O    -4.319000000     1.657000000    -3.333000000
H    -3.882000000     2.413000000    -2.940000000
H    -4.506000000     1.928000000    -4.231000000
O    -5.432000000    -0.934000000     1.018000000
H    -6.273000000    -0.584000000     1.312000000
H    -4.863000000    -0.166000000     0.951000000
O     0.768000000    -0.504000000     6.031000000
H     1.477000000    -0.583000000     5.392000000
H     1.127000000     0.056000000     6.719000000
O    -2.975000000    -4.912000000    -2.258000000
H    -3.623000000    -4.214000000    -2.164000000
H    -2.132000000    -4.458000000    -2.261000000
O     1.539000000    -2.945000000     1.287000000
H     0.965000000    -2.660000000     0.576000000
H     0.943000000    -3.183000000     1.997000000
O    -2.709000000     3.567000000    -1.788000000
H    -2.642000000     3.919000000    -2.676000000
H    -1.825000000     3.261000000    -1.585000000
O     0.302000000     3.342000000    -0.639000000
H     0.217000000     2.411000000    -0.436000000
H     1.141000000     3.596000000    -0.254000000
O     0.404000000     1.816000000    -5.168000000
H    -0.265000000     1.195000000    -5.457000000
H     0.403000000     1.741000000    -4.214000000
O     3.055000000     0.384000000     4.344000000
H     3.715000000     0.626000000     3.695000000
H     3.505000000    -0.229000000     4.926000000
O     1.234000000    -0.959000000    -6.762000000
H     0.347000000    -0.609000000    -6.841000000
H     1.154000000    -1.673000000    -6.129000000
O     3.433000000     3.393000000    -2.256000000
H     3.721000000     3.477000000    -1.347000000
H     3.399000000     4.293000000    -2.580000000
O     0.194000000    -3.543000000     3.429000000
H     0.578000000    -3.791000000     4.270000000
H    -0.492000000    -2.916000000     3.655000000
O     4.196000000     3.518000000     3.656000000
H     4.061000000     4.424000000     3.377000000
H     3.327000000     3.217000000     3.921000000
O    -1.427000000     3.415000000     2.811000000
H    -1.793000000     2.534000000     2.890000000
H    -2.072000000     3.981000000     3.234000000
O     5.992000000     3.062000000    -0.157000000
H     6.060000000     3.170000000     0.791000000
H     6.778000000     3.485000000    -0.503000000
O     0.657000000    -2.328000000    -4.577000000
H    -0.274000000    -2.524000000    -4.478000000
H     1.072000000    -2.744000000    -3.821000000
O    -3.024000000     2.541000000     5.834000000
H    -3.473000000     1.837000000     5.366000000
H    -2.420000000     2.089000000     6.423000000
O     3.020000000    -0.874000000    -3.927000000
H     2.243000000    -1.157000000    -4.408000000
H     2.751000000    -0.063000000    -3.495000000
O     0.772000000     4.896000000     2.012000000
H     0.033000000     4.334000000     2.242000000
H     0.530000000     5.279000000     1.169000000
O    -2.153000000    -2.255000000    -4.546000000
H    -2.560000000    -2.834000000    -5.191000000
H    -2.886000000    -1.914000000    -4.034000000
O    -4.392000000    -2.569000000    -1.196000000
H    -4.458000000    -2.108000000    -2.033000000
H    -4.876000000    -2.019000000    -0.581000000
O     1.650000000     2.707000000     4.609000000
H     1.994000000     1.814000000     4.646000000
H     1.054000000     2.703000000     3.859000000
O     7.738000000    -0.155000000     1.257000000
H     6.891000000    -0.151000000     0.811000000
H     7.519000000    -0.217000000     2.187000000
O     3.673000000    -4.025000000    -4.223000000
H     2.930000000    -4.126000000    -3.628000000
H     4.240000000    -3.385000000    -3.793000000
O    -8.747000000     1.412000000    -0.897000000
H    -8.767000000     0.601000000    -0.390000000
H    -7.817000000     1.624000000    -0.975000000
O     4.829000000    -1.834000000    -6.218000000
H     4.115000000    -1.492000000    -5.679000000
H     5.412000000    -2.269000000    -5.595000000
O     4.814000000     1.690000000    -4.079000000
H     4.899000000     0.780000000    -3.792000000
H     4.149000000     2.062000000    -3.498000000
O    -4.960000000     1.636000000     3.423000000
H    -4.226000000     1.215000000     2.976000000
H    -5.330000000     2.230000000     2.770000000
O     5.235000000     1.129000000     2.650000000
H     4.933000000     2.037000000     2.642000000
H     5.785000000     1.066000000     3.431000000
O     2.081000000     1.369000000    -2.644000000
H     1.877000000     1.139000000    -1.737000000
H     2.505000000     2.225000000    -2.585000000
O     5.434000000     0.314000000    -0.099000000
H     5.839000000     1.139000000    -0.367000000
H     5.066000000     0.497000000     0.766000000
O    -7.137000000     0.234000000     3.021000000
H    -6.287000000     0.664000000     3.113000000
H    -7.412000000     0.053000000     3.920000000
O    -4.877000000    -2.529000000     3.240000000
H    -4.964000000    -1.906000000     2.519000000
H    -5.645000000    -3.096000000     3.161000000
O    -1.173000000    -3.508000000    -0.988000000
H    -1.978000000    -3.742000000    -0.526000000
H    -1.057000000    -2.575000000    -0.810000000
O     4.676000000    -1.794000000    -1.748000000
H     4.084000000    -1.435000000    -2.410000000
H     4.864000000    -1.056000000    -1.170000000
O    -3.136000000    -3.592000000     1.146000000
H    -3.392000000    -3.331000000     2.030000000
H    -2.677000000    -4.424000000     1.266000000
O    -3.361000000     4.978000000     4.655000000
H    -3.140000000     4.230000000     5.211000000
H    -4.271000000     4.826000000     4.400000000
O     1.403000000    -3.763000000    -2.289000000
H     0.567000000    -3.943000000    -1.858000000
H     2.061000000    -3.928000000    -1.613000000
O     4.287000000    -6.369000000    -1.405000000
H     3.990000000    -5.654000000    -0.841000000
H     5.215000000    -6.472000000    -1.193000000
O     3.618000000    -4.047000000     3.663000000
H     3.371000000    -3.589000000     4.467000000
H     2.939000000    -3.808000000     3.033000000
O    -3.661000000    -1.040000000     5.702000000
H    -2.827000000    -1.033000000     5.233000000
H    -4.285000000    -1.406000000     5.075000000
O    -1.630000000     0.425000000    -5.720000000
H    -2.521000000     0.770000000    -5.656000000
H    -1.690000000    -0.462000000    -5.365000000
O    -4.574000000     3.511000000     1.096000000
H    -4.414000000     4.084000000     0.346000000
H    -4.236000000     2.659000000     0.822000000
O    -4.497000000    -1.212000000    -3.626000000
H    -5.393000000    -1.243000000    -3.961000000
H    -4.368000000    -0.298000000    -3.373000000
O    -1.422000000    -0.601000000     4.438000000
H    -1.740000000     0.126000000     3.903000000
H    -0.663000000    -0.244000000     4.899000000
O     2.829000000     4.303000000     0.426000000
H     2.273000000     4.691000000     1.102000000
H     3.320000000     5.042000000     0.067000000
O    -5.734000000     1.398000000    -0.989000000
H    -4.987000000     1.333000000    -0.394000000
H    -5.349000000     1.633000000    -1.833000000
