158
-3034.39569
C    -1.148000000    -0.862000000    -0.417000000
H    -1.841000000    -1.532000000    -0.922000000
C     0.222000000    -1.137000000    -0.517000000
H     0.591000000    -2.042000000    -0.994000000
C     1.221000000    -0.306000000    -0.036000000
H     2.320000000    -0.597000000    -0.137000000
C     0.805000000     0.879000000     0.614000000
H     1.615000000     1.553000000     0.879000000
C    -0.590000000     1.205000000     0.762000000
H    -0.839000000     2.031000000     1.423000000
C    -1.541000000     0.363000000     0.153000000
C    -2.995000000     0.725000000     0.162000000
O    -3.809000000     0.079000000    -0.426000000
O    -3.381000000     1.629000000     0.914000000
O     3.760000000     1.687000000    -2.555000000
H     3.668000000     2.229000000    -1.772000000
H     4.465000000     1.076000000    -2.341000000
O    -6.057000000     1.498000000    -1.572000000
H    -5.311000000     1.148000000    -1.084000000
H    -6.807000000     0.994000000    -1.256000000
O    -5.708000000    -0.622000000     1.917000000
H    -5.173000000    -0.258000000     1.212000000
H    -6.592000000    -0.302000000     1.737000000
O    -0.752000000    -0.903000000     4.692000000
H    -1.408000000    -0.264000000     4.413000000
H    -0.410000000    -1.267000000     3.876000000
O    -1.291000000    -3.643000000     0.950000000
H    -1.998000000    -4.284000000     1.024000000
H    -1.115000000    -3.589000000     0.011000000
O    -1.030000000     2.740000000    -3.233000000
H    -1.824000000     3.273000000    -3.217000000
H    -1.287000000     1.941000000    -3.693000000
O    -6.775000000     4.791000000     2.384000000
H    -6.436000000     3.942000000     2.670000000
H    -7.441000000     4.575000000     1.732000000
O    -2.346000000     1.015000000    -4.997000000
H    -3.148000000     1.306000000    -5.431000000
H    -2.421000000     0.061000000    -4.969000000
O     4.775000000     1.114000000    -5.388000000
H     4.289000000     1.743000000    -4.854000000
H     5.644000000     1.081000000    -4.989000000
O     5.198000000    -2.257000000     2.764000000
H     6.140000000    -2.408000000     2.832000000
H     4.819000000    -3.132000000     2.687000000
O     2.469000000     0.862000000     3.542000000
H     1.570000000     1.179000000     3.630000000
H     2.865000000     1.442000000     2.893000000
O     0.297000000     2.692000000     3.648000000
H    -0.366000000     3.357000000     3.460000000
H     0.914000000     3.129000000     4.235000000
O    -3.774000000     4.492000000     4.014000000
H    -4.419000000     3.975000000     3.532000000
H    -3.812000000     4.151000000     4.907000000
O     3.267000000     4.668000000     3.393000000
H     4.121000000     5.100000000     3.378000000
H     3.410000000     3.837000000     2.941000000
O    -0.828000000     5.701000000    -1.516000000
H    -1.160000000     4.936000000    -1.986000000
H    -0.450000000     5.344000000    -0.713000000
O    -3.408000000    -4.595000000    -2.823000000
H    -3.681000000    -5.506000000    -2.719000000
H    -4.211000000    -4.088000000    -2.701000000
O     3.830000000    -4.714000000     2.420000000
H     4.492000000    -5.324000000     2.746000000
H     3.226000000    -5.261000000     1.920000000
O     0.481000000    -2.694000000    -6.042000000
H     0.871000000    -3.534000000    -5.799000000
H     0.421000000    -2.210000000    -5.218000000
O     0.259000000     4.864000000     0.876000000
H    -0.283000000     5.130000000     1.619000000
H     1.158000000     5.015000000     1.168000000
O    -1.246000000     5.108000000     3.328000000
H    -2.087000000     5.025000000     3.777000000
H    -0.852000000     5.897000000     3.701000000
O    -3.382000000    -2.118000000     2.685000000
H    -2.905000000    -2.522000000     1.960000000
H    -4.269000000    -1.991000000     2.347000000
O    -8.026000000    -0.117000000    -0.534000000
H    -8.649000000    -0.004000000     0.184000000
H    -8.560000000    -0.415000000    -1.270000000
O     5.275000000    -0.655000000    -1.621000000
H     6.220000000    -0.552000000    -1.507000000
H     5.025000000    -1.310000000    -0.969000000
O     1.522000000     0.809000000    -3.323000000
H     2.446000000     0.961000000    -3.125000000
H     1.051000000     1.407000000    -2.741000000
O     2.753000000     4.513000000    -3.589000000
H     2.766000000     3.849000000    -4.278000000
H     2.227000000     4.123000000    -2.890000000
O     4.164000000    -1.371000000    -4.054000000
H     4.624000000    -0.963000000    -3.320000000
H     3.949000000    -0.642000000    -4.636000000
O    -2.600000000    -1.732000000    -4.586000000
H    -1.667000000    -1.818000000    -4.390000000
H    -3.026000000    -1.741000000    -3.730000000
O    -1.813000000     1.615000000     5.811000000
H    -2.703000000     1.524000000     5.470000000
H    -1.268000000     1.730000000     5.033000000
O    -6.648000000     0.855000000     4.502000000
H    -6.269000000     0.053000000     4.141000000
H    -7.257000000     0.551000000     5.175000000
O     3.520000000    -1.211000000     4.838000000
H     3.031000000    -0.543000000     4.358000000
H     3.982000000    -1.703000000     4.160000000
O     1.181000000     3.123000000    -1.660000000
H     0.331000000     3.164000000    -2.097000000
H     0.982000000     3.261000000    -0.734000000
O     5.576000000     0.258000000     1.873000000
H     5.263000000    -0.501000000     2.365000000
H     6.367000000    -0.052000000     1.432000000
O     1.529000000    -6.221000000    -0.497000000
H     1.009000000    -5.813000000    -1.189000000
H     2.431000000    -6.172000000    -0.814000000
O     0.142000000    -1.591000000    -3.551000000
H     0.650000000    -2.022000000    -2.865000000
H     0.167000000    -0.662000000    -3.321000000
O     2.565000000    -3.051000000    -2.504000000
H     3.094000000    -2.493000000    -3.073000000
H     3.161000000    -3.312000000    -1.803000000
O    -3.877000000    -4.405000000     0.517000000
H    -4.125000000    -5.328000000     0.570000000
H    -4.647000000    -3.970000000     0.152000000
O     4.320000000     2.611000000     2.129000000
H     4.626000000     3.102000000     1.366000000
H     4.732000000     1.752000000     2.043000000
O    -5.202000000     4.402000000    -1.010000000
H    -4.372000000     4.092000000    -0.650000000
H    -5.799000000     3.661000000    -0.908000000
O     4.843000000    -2.478000000     0.065000000
H     4.236000000    -2.429000000     0.804000000
H     5.506000000    -3.110000000     0.341000000
O     0.136000000    -2.005000000     2.531000000
H     0.360000000    -1.195000000     2.072000000
H    -0.196000000    -2.585000000     1.846000000
O    -4.100000000    -1.331000000    -2.532000000
H    -4.092000000    -0.943000000    -1.657000000
H    -4.907000000    -1.846000000    -2.558000000
O    -0.747000000    -5.514000000    -2.339000000
H    -1.092000000    -6.390000000    -2.517000000
H    -1.499000000    -4.933000000    -2.456000000
O    -2.697000000     4.229000000     0.373000000
H    -2.906000000     3.347000000     0.683000000
H    -2.222000000     4.632000000     1.099000000
O     4.170000000     3.628000000    -0.896000000
H     3.344000000     4.069000000    -1.090000000
H     4.784000000     3.971000000    -1.546000000
O    -2.984000000     0.759000000     3.534000000
H    -3.042000000     1.101000000     2.642000000
H    -3.164000000    -0.177000000     3.444000000
O    -5.284000000     2.556000000     2.781000000
H    -5.056000000     2.276000000     1.895000000
H    -4.876000000     1.904000000     3.351000000
O    -6.271000000     1.667000000    -4.389000000
H    -6.259000000     1.447000000    -3.457000000
H    -5.876000000     0.908000000    -4.818000000
O     1.192000000    -4.947000000    -4.142000000
H     0.394000000    -5.120000000    -3.644000000
H     1.605000000    -4.213000000    -3.686000000
