158
-3048.49306
C    -0.947000000     0.487000000    -1.059000000
H    -1.535000000     0.765000000    -1.930000000
C     0.360000000    -0.008000000    -1.313000000
H     0.755000000     0.033000000    -2.325000000
C     1.144000000    -0.437000000    -0.220000000
H     2.231000000    -0.752000000    -0.399000000
C     0.660000000    -0.361000000     1.058000000
H     1.203000000    -0.698000000     1.937000000
C    -0.643000000     0.057000000     1.305000000
H    -1.020000000     0.047000000     2.325000000
C    -1.440000000     0.528000000     0.279000000
C    -2.824000000     1.185000000     0.625000000
O    -3.275000000     2.076000000    -0.078000000
O    -3.375000000     1.057000000     1.722000000
O    -2.957000000     2.775000000    -4.639000000
H    -2.877000000     2.165000000    -5.373000000
H    -3.496000000     2.310000000    -3.999000000
O    -5.224000000    -1.632000000     1.998000000
H    -5.566000000    -0.796000000     1.681000000
H    -4.728000000    -1.405000000     2.785000000
O    -1.000000000     1.812000000     5.292000000
H    -0.497000000     2.453000000     4.790000000
H    -0.611000000     0.968000000     5.062000000
O    -0.987000000    -2.887000000    -2.451000000
H    -1.118000000    -2.995000000    -1.509000000
H    -0.074000000    -3.136000000    -2.596000000
O     2.451000000    -6.506000000    -2.020000000
H     2.373000000    -6.346000000    -2.960000000
H     2.489000000    -5.632000000    -1.631000000
O    -6.292000000     4.121000000    -2.741000000
H    -6.007000000     4.988000000    -2.452000000
H    -5.479000000     3.633000000    -2.872000000
O    -0.510000000     6.207000000    -0.342000000
H    -1.405000000     6.548000000    -0.340000000
H    -0.582000000     5.349000000    -0.759000000
O     1.727000000    -3.615000000    -1.371000000
H     1.664000000    -3.091000000    -0.572000000
H     2.431000000    -3.205000000    -1.873000000
O     2.149000000    -1.905000000     4.143000000
H     1.944000000    -2.624000000     4.741000000
H     2.311000000    -2.331000000     3.302000000
O     4.096000000     2.083000000    -4.553000000
H     3.606000000     2.608000000    -5.186000000
H     4.986000000     2.054000000    -4.904000000
O    -0.902000000     4.743000000     2.158000000
H    -1.179000000     4.256000000     1.382000000
H    -0.874000000     5.656000000     1.871000000
O    -0.527000000     3.224000000    -3.250000000
H    -1.183000000     2.916000000    -3.875000000
H     0.053000000     3.783000000    -3.767000000
O    -0.988000000    -2.215000000    -5.434000000
H    -0.928000000    -1.484000000    -6.049000000
H    -0.814000000    -1.823000000    -4.578000000
O    -5.440000000     0.261000000     5.752000000
H    -5.111000000     1.012000000     6.246000000
H    -4.673000000    -0.075000000     5.288000000
O     1.514000000    -4.896000000     3.411000000
H     2.266000000    -4.936000000     2.820000000
H     1.239000000    -5.807000000     3.511000000
O    -2.862000000     4.836000000     4.480000000
H    -2.381000000     4.804000000     3.652000000
H    -3.642000000     5.355000000     4.283000000
O     2.056000000     1.900000000     3.340000000
H     1.917000000     1.053000000     3.766000000
H     2.962000000     2.127000000     3.548000000
O     2.883000000    -2.561000000    -3.594000000
H     2.392000000    -3.226000000    -4.076000000
H     3.641000000    -2.375000000    -4.149000000
O     1.509000000     2.912000000     0.718000000
H     1.139000000     2.854000000     1.599000000
H     0.900000000     2.419000000     0.170000000
O     5.451000000    -3.043000000     0.740000000
H     6.365000000    -3.109000000     0.463000000
H     5.231000000    -2.119000000     0.625000000
O    -3.121000000    -1.584000000    -3.623000000
H    -2.815000000    -1.338000000    -4.496000000
H    -2.321000000    -1.791000000    -3.138000000
O    -1.343000000    -5.282000000     0.708000000
H    -0.928000000    -4.420000000     0.685000000
H    -1.083000000    -5.696000000    -0.114000000
O    -1.266000000     3.645000000    -0.736000000
H    -2.011000000     3.048000000    -0.662000000
H    -1.026000000     3.615000000    -1.662000000
O     3.517000000     4.329000000    -1.260000000
H     3.790000000     3.413000000    -1.307000000
H     2.822000000     4.339000000    -0.602000000
O    -5.821000000     4.074000000     4.529000000
H    -5.433000000     3.730000000     3.724000000
H    -6.708000000     4.330000000     4.276000000
O    -7.696000000     2.936000000    -0.892000000
H    -7.051000000     3.474000000    -1.351000000
H    -7.609000000     2.068000000    -1.287000000
O    -3.388000000     2.212000000     6.097000000
H    -2.529000000     1.895000000     5.818000000
H    -3.544000000     2.987000000     5.557000000
O     4.798000000    -0.614000000    -0.338000000
H     4.269000000    -0.428000000    -1.113000000
H     4.662000000     0.143000000     0.232000000
O    -0.474000000     0.469000000    -4.784000000
H    -0.722000000     0.665000000    -3.880000000
H    -0.547000000     1.308000000    -5.239000000
O     3.880000000    -0.020000000    -2.785000000
H     3.504000000    -0.746000000    -3.282000000
H     3.967000000     0.689000000    -3.422000000
O     3.810000000    -4.879000000     1.770000000
H     4.298000000    -5.212000000     2.524000000
H     4.259000000    -4.067000000     1.535000000
O    -5.798000000     1.707000000     1.927000000
H    -4.857000000     1.534000000     1.937000000
H    -5.932000000     2.265000000     1.161000000
O    -1.198000000    -2.586000000     0.276000000
H    -0.735000000    -1.751000000     0.203000000
H    -1.133000000    -2.815000000     1.203000000
O     4.178000000    -0.203000000     5.142000000
H     3.364000000    -0.690000000     5.011000000
H     4.188000000     0.000000000     6.077000000
O     5.181000000    -3.328000000    -2.250000000
H     4.328000000    -3.010000000    -2.546000000
H     5.357000000    -2.833000000    -1.450000000
O    -4.119000000    -2.709000000    -0.106000000
H    -3.201000000    -2.455000000    -0.014000000
H    -4.504000000    -2.528000000     0.752000000
O     4.130000000     1.532000000     0.966000000
H     4.435000000     1.815000000     1.828000000
H     3.286000000     1.970000000     0.855000000
O     6.048000000     2.298000000    -0.963000000
H     5.386000000     2.122000000    -0.295000000
H     6.397000000     3.159000000    -0.733000000
O     7.685000000    -0.081000000    -1.487000000
H     7.491000000    -0.637000000    -0.732000000
H     7.018000000     0.605000000    -1.457000000
O    -0.385000000    -0.780000000     5.037000000
H    -0.433000000    -1.101000000     5.937000000
H     0.437000000    -1.137000000     4.699000000
O     2.160000000    -0.015000000    -5.918000000
H     2.126000000    -0.938000000    -6.167000000
H     1.356000000     0.129000000    -5.419000000
O    -4.730000000     4.197000000     1.112000000
H    -4.445000000     4.806000000     0.430000000
H    -4.340000000     3.359000000     0.863000000
O    -7.550000000     0.871000000     3.908000000
H    -7.139000000     1.360000000     3.195000000
H    -6.880000000     0.834000000     4.591000000
O    -5.023000000    -0.619000000    -1.657000000
H    -4.843000000    -1.375000000    -1.098000000
H    -4.726000000    -0.888000000    -2.526000000
O    -7.551000000     0.388000000    -1.581000000
H    -8.032000000     0.101000000    -0.805000000
H    -6.727000000    -0.097000000    -1.545000000
O    -3.177000000    -0.684000000     3.518000000
H    -3.176000000     0.083000000     2.946000000
H    -2.391000000    -0.583000000     4.055000000
O    -4.239000000     2.024000000    -2.432000000
H    -3.770000000     2.131000000    -1.605000000
H    -4.866000000     1.321000000    -2.263000000
O    -1.449000000    -3.140000000     2.920000000
H    -2.135000000    -2.760000000     3.468000000
H    -0.952000000    -3.703000000     3.514000000
