158
-3026.99611
C    -0.431000000     1.177000000    -0.860000000
H    -0.805000000     1.965000000    -1.510000000
C    -0.095000000    -0.080000000    -1.306000000
H    -0.223000000    -0.261000000    -2.370000000
C     0.224000000    -1.132000000    -0.463000000
H     0.415000000    -2.122000000    -0.854000000
C     0.324000000    -0.876000000     0.898000000
H     0.645000000    -1.696000000     1.536000000
C     0.134000000     0.429000000     1.412000000
H     0.346000000     0.578000000     2.468000000
C    -0.240000000     1.467000000     0.513000000
C    -0.502000000     2.876000000     1.153000000
O    -0.704000000     3.801000000     0.381000000
O    -0.590000000     3.009000000     2.365000000
O    -3.859000000     4.512000000    -3.484000000
H    -3.118000000     4.221000000    -4.015000000
H    -3.751000000     5.461000000    -3.422000000
O     1.767000000    -4.724000000    -5.384000000
H     1.331000000    -3.895000000    -5.579000000
H     1.077000000    -5.278000000    -5.020000000
O    -3.461000000    -0.353000000     4.679000000
H    -3.619000000    -0.411000000     3.737000000
H    -2.682000000     0.198000000     4.757000000
O    -0.243000000    -4.550000000    -2.496000000
H     0.407000000    -5.237000000    -2.644000000
H    -0.772000000    -4.875000000    -1.768000000
O    -1.747000000     3.696000000    -4.773000000
H    -1.648000000     3.720000000    -5.725000000
H    -1.758000000     2.763000000    -4.558000000
O     0.960000000     4.392000000     4.251000000
H     1.829000000     4.657000000     3.949000000
H     0.664000000     3.756000000     3.600000000
O     0.626000000     4.671000000    -3.373000000
H     0.707000000     5.622000000    -3.447000000
H    -0.225000000     4.472000000    -3.763000000
O    -3.010000000    -4.161000000    -3.240000000
H    -2.203000000    -3.893000000    -3.679000000
H    -2.853000000    -3.972000000    -2.314000000
O     3.006000000     7.169000000    -0.766000000
H     2.129000000     6.810000000    -0.638000000
H     3.596000000     6.453000000    -0.528000000
O    -4.679000000     4.369000000     3.727000000
H    -4.790000000     3.423000000     3.814000000
H    -4.102000000     4.475000000     2.971000000
O     4.403000000    -4.463000000    -4.525000000
H     3.514000000    -4.340000000    -4.858000000
H     4.967000000    -4.093000000    -5.204000000
O    -2.635000000     7.188000000     0.206000000
H    -3.266000000     7.275000000    -0.509000000
H    -2.335000000     8.082000000     0.372000000
O    -0.898000000    -1.308000000     5.665000000
H    -0.414000000    -0.511000000     5.451000000
H    -1.680000000    -1.269000000     5.113000000
O    -1.283000000     6.924000000     3.649000000
H    -0.667000000     7.445000000     4.165000000
H    -1.036000000     6.016000000     3.826000000
O     3.113000000     2.220000000     1.015000000
H     2.807000000     2.845000000     0.357000000
H     3.211000000     1.397000000     0.536000000
O     3.096000000    -3.365000000     2.738000000
H     2.936000000    -4.061000000     2.101000000
H     3.150000000    -2.567000000     2.212000000
O    -3.107000000    -1.266000000    -1.065000000
H    -3.768000000    -1.882000000    -1.381000000
H    -2.273000000    -1.646000000    -1.342000000
O     0.027000000    -6.568000000    -0.461000000
H     0.660000000    -6.985000000    -1.045000000
H     0.558000000    -6.025000000     0.121000000
O     2.046000000    -6.838000000    -3.050000000
H     2.899000000    -6.403000000    -3.031000000
H     2.227000000    -7.733000000    -2.763000000
O     1.792000000     4.205000000    -0.882000000
H     1.555000000     4.332000000    -1.800000000
H     0.963000000     4.011000000    -0.445000000
O    -3.775000000    -3.476000000     2.037000000
H    -3.325000000    -2.642000000     1.904000000
H    -3.492000000    -3.765000000     2.905000000
O     4.719000000    -4.452000000    -0.232000000
H     4.615000000    -3.503000000    -0.294000000
H     5.312000000    -4.676000000    -0.949000000
O    -3.373000000    -1.565000000    -4.293000000
H    -3.808000000    -1.146000000    -5.035000000
H    -4.083000000    -1.774000000    -3.686000000
O    -2.627000000    -3.973000000     4.375000000
H    -2.693000000    -4.326000000     5.262000000
H    -1.694000000    -3.799000000     4.255000000
O     3.636000000    -0.015000000     5.567000000
H     4.481000000    -0.415000000     5.364000000
H     3.515000000    -0.174000000     6.503000000
O    -1.566000000     1.511000000     4.372000000
H    -0.628000000     1.402000000     4.533000000
H    -1.612000000     2.040000000     3.576000000
O     0.733000000    -0.229000000    -4.724000000
H     1.589000000     0.123000000    -4.480000000
H     0.534000000     0.185000000    -5.563000000
O     3.408000000     0.416000000    -1.158000000
H     2.687000000     0.757000000    -1.689000000
H     3.590000000    -0.448000000    -1.528000000
O     3.307000000    -1.554000000     0.744000000
H     2.650000000    -0.868000000     0.627000000
H     4.145000000    -1.106000000     0.628000000
O     2.370000000    -5.512000000     0.849000000
H     2.625000000    -6.399000000     1.104000000
H     2.934000000    -5.306000000     0.103000000
O    -2.976000000     4.777000000     1.604000000
H    -2.220000000     4.208000000     1.454000000
H    -2.633000000     5.664000000     1.498000000
O     0.216000000    -3.842000000     4.342000000
H     0.409000000    -4.325000000     5.146000000
H     1.069000000    -3.524000000     4.044000000
O     3.219000000     2.620000000     3.606000000
H     2.858000000     1.828000000     4.005000000
H     2.923000000     2.585000000     2.696000000
O    -2.669000000    -4.588000000    -0.443000000
H    -2.782000000    -4.231000000     0.438000000
H    -2.777000000    -5.532000000    -0.334000000
O     0.319000000     6.343000000     0.596000000
H     0.030000000     6.569000000    -0.289000000
H     0.015000000     5.445000000     0.725000000
O    -4.938000000     1.460000000    -3.191000000
H    -5.099000000     1.759000000    -4.087000000
H    -4.258000000     2.047000000    -2.862000000
O     0.384000000    -2.656000000    -6.232000000
H    -0.106000000    -2.339000000    -6.991000000
H     0.305000000    -1.954000000    -5.586000000
O    -1.619000000    -8.253000000     0.407000000
H    -1.104000000    -9.033000000     0.614000000
H    -0.967000000    -7.587000000     0.188000000
O     5.761000000    -1.564000000    -0.565000000
H     6.468000000    -0.921000000    -0.626000000
H     5.291000000    -1.482000000    -1.394000000
O     1.766000000     7.947000000     2.594000000
H     1.342000000     7.413000000     1.922000000
H     2.034000000     8.743000000     2.135000000
O    -1.772000000     1.041000000    -4.375000000
H    -2.359000000     0.464000000    -3.887000000
H    -0.897000000     0.816000000    -4.058000000
O     4.005000000    -1.786000000    -2.736000000
H     4.022000000    -1.528000000    -3.658000000
H     3.503000000    -2.600000000    -2.724000000
O     3.226000000     0.552000000    -4.898000000
H     3.852000000     0.148000000    -5.499000000
H     3.573000000     1.430000000    -4.744000000
O    -3.132000000     2.948000000    -0.748000000
H    -3.803000000     3.626000000    -0.679000000
H    -2.303000000     3.423000000    -0.679000000
O    -2.513000000    -0.876000000     2.138000000
H    -1.705000000    -1.056000000     1.656000000
H    -3.051000000    -0.376000000     1.525000000
O    -4.199000000     0.685000000     0.441000000
H    -3.934000000     1.512000000     0.039000000
H    -3.874000000     0.012000000    -0.158000000
O    -0.679000000    -6.172000000    -4.872000000
H    -1.010000000    -5.775000000    -4.066000000
H    -1.466000000    -6.406000000    -5.364000000
O     1.141000000     0.786000000     5.015000000
H     2.070000000     0.560000000     4.978000000
H     0.994000000     1.048000000     5.923000000
