158
-3054.92624
C    -0.267000000     1.240000000    -0.728000000
H    -0.522000000     2.145000000    -1.274000000
C    -1.057000000     0.059000000    -0.755000000
H    -1.963000000     0.057000000    -1.356000000
C    -0.549000000    -1.113000000    -0.127000000
H    -1.119000000    -2.033000000    -0.152000000
C     0.580000000    -1.002000000     0.617000000
H     0.926000000    -1.888000000     1.143000000
C     1.276000000     0.174000000     0.723000000
H     2.219000000     0.117000000     1.261000000
C     0.868000000     1.378000000     0.040000000
C     1.477000000     2.758000000     0.412000000
O     0.977000000     3.747000000    -0.044000000
O     2.340000000     2.816000000     1.319000000
O     0.080000000     6.778000000    -3.953000000
H    -0.744000000     7.260000000    -4.024000000
H    -0.105000000     6.078000000    -3.326000000
O    -1.087000000    -1.860000000     3.862000000
H    -0.467000000    -1.146000000     4.014000000
H    -1.388000000    -2.106000000     4.737000000
O     5.931000000     4.270000000     3.468000000
H     5.086000000     4.313000000     3.020000000
H     5.856000000     3.513000000     4.048000000
O     0.728000000    -1.114000000    -3.548000000
H     0.100000000    -0.465000000    -3.866000000
H     0.545000000    -1.898000000    -4.065000000
O    -4.302000000    -1.967000000    -2.014000000
H    -4.035000000    -2.493000000    -2.768000000
H    -5.194000000    -2.258000000    -1.823000000
O    -1.117000000     0.848000000    -4.713000000
H    -1.626000000     1.495000000    -5.202000000
H    -0.442000000     1.360000000    -4.268000000
O    -1.229000000     6.612000000     1.210000000
H    -1.280000000     7.566000000     1.265000000
H    -0.375000000     6.440000000     0.813000000
O    -0.853000000    -3.946000000     1.890000000
H    -0.867000000    -3.249000000     2.546000000
H    -1.668000000    -3.832000000     1.401000000
O    -3.034000000     3.179000000    -2.432000000
H    -3.264000000     2.883000000    -1.551000000
H    -3.467000000     2.555000000    -3.015000000
O     2.989000000     4.433000000     3.042000000
H     2.881000000     3.824000000     2.312000000
H     2.905000000     5.300000000     2.645000000
O    -3.193000000    -3.865000000    -3.719000000
H    -3.446000000    -4.654000000    -4.198000000
H    -2.676000000    -3.360000000    -4.346000000
O     5.414000000    -2.466000000     3.211000000
H     4.970000000    -1.724000000     3.622000000
H     5.647000000    -2.152000000     2.337000000
O     0.450000000     3.266000000    -4.149000000
H    -0.209000000     3.355000000    -4.837000000
H     0.152000000     3.854000000    -3.455000000
O     0.061000000     0.433000000     4.962000000
H     0.496000000     1.275000000     4.824000000
H     0.561000000     0.018000000     5.665000000
O    -4.069000000    -3.442000000     3.387000000
H    -3.897000000    -3.520000000     2.449000000
H    -4.990000000    -3.188000000     3.441000000
O    -1.239000000     3.814000000     1.703000000
H    -1.402000000     4.757000000     1.733000000
H    -0.477000000     3.721000000     1.131000000
O     2.364000000    -4.872000000     0.319000000
H     2.312000000    -4.097000000    -0.240000000
H     2.745000000    -4.552000000     1.137000000
O    -1.448000000    -6.523000000     3.546000000
H    -2.004000000    -6.453000000     2.770000000
H    -1.528000000    -7.437000000     3.817000000
O     2.487000000     4.147000000    -2.862000000
H     2.816000000     3.459000000    -2.284000000
H     1.823000000     3.713000000    -3.398000000
O     2.440000000    -2.439000000     4.633000000
H     3.140000000    -1.791000000     4.557000000
H     1.797000000    -2.176000000     3.975000000
O    -5.029000000    -5.374000000    -0.759000000
H    -5.882000000    -5.754000000    -0.549000000
H    -5.002000000    -5.357000000    -1.715000000
O     1.301000000    -5.364000000    -3.368000000
H     0.461000000    -5.458000000    -3.816000000
H     1.350000000    -6.126000000    -2.790000000
O     1.368000000     6.201000000    -0.981000000
H     1.324000000     5.810000000    -1.854000000
H     1.382000000     5.452000000    -0.384000000
O     0.996000000    -5.671000000     3.747000000
H     1.363000000    -5.700000000     2.863000000
H     0.056000000    -5.802000000     3.620000000
O    -3.426000000     2.484000000     0.164000000
H    -4.103000000     1.925000000     0.545000000
H    -2.885000000     2.746000000     0.910000000
O     5.884000000    -1.398000000     0.691000000
H     5.124000000    -1.485000000     0.116000000
H     6.635000000    -1.570000000     0.124000000
O    -1.258000000    -2.343000000    -5.506000000
H    -1.507000000    -2.560000000    -6.404000000
H    -1.250000000    -1.386000000    -5.483000000
O     0.956000000     8.851000000    -0.896000000
H     0.728000000     8.980000000     0.024000000
H     1.099000000     7.908000000    -0.978000000
O     3.052000000     6.986000000     1.696000000
H     3.481000000     7.790000000     1.987000000
H     3.533000000     6.730000000     0.909000000
O     0.644000000     2.613000000     3.686000000
H    -0.181000000     2.633000000     3.202000000
H     1.312000000     2.468000000     3.017000000
O    -0.009000000    -6.315000000     0.785000000
H    -0.285000000    -5.547000000     1.285000000
H     0.912000000    -6.150000000     0.581000000
O     3.467000000    -1.685000000    -0.559000000
H     3.244000000    -0.822000000    -0.907000000
H     2.867000000    -2.284000000    -1.003000000
O     4.320000000    -0.270000000     4.543000000
H     4.132000000     0.669000000     4.557000000
H     5.085000000    -0.370000000     5.109000000
O     3.372000000     1.553000000    -2.369000000
H     3.100000000     0.827000000    -2.931000000
H     4.284000000     1.714000000    -2.610000000
O    -1.509000000    -8.071000000    -0.763000000
H    -2.148000000    -8.090000000    -0.050000000
H    -0.834000000    -7.461000000    -0.464000000
O     4.616000000     2.312000000     0.253000000
H     3.839000000     2.614000000     0.724000000
H     4.288000000     2.047000000    -0.606000000
O     0.179000000     4.896000000     5.196000000
H     0.478000000     4.608000000     6.058000000
H     0.525000000     4.240000000     4.590000000
O     1.619000000    -3.054000000    -1.787000000
H     1.406000000    -3.678000000    -2.482000000
H     1.247000000    -2.225000000    -2.087000000
O     7.021000000     3.513000000     0.615000000
H     6.172000000     3.108000000     0.437000000
H     6.954000000     3.820000000     1.519000000
O    -3.817000000     0.853000000    -3.790000000
H    -2.884000000     0.678000000    -3.912000000
H    -4.122000000     0.142000000    -3.227000000
O    -0.621000000     4.560000000    -2.270000000
H    -1.447000000     4.082000000    -2.346000000
H    -0.396000000     4.502000000    -1.342000000
O    -2.503000000    -0.164000000     2.150000000
H    -1.770000000    -0.359000000     1.567000000
H    -2.459000000    -0.841000000     2.825000000
O    -3.308000000    -3.367000000     0.527000000
H    -3.876000000    -4.072000000     0.216000000
H    -3.290000000    -2.739000000    -0.195000000
O     4.036000000     2.524000000     5.016000000
H     3.609000000     3.251000000     4.563000000
H     3.801000000     2.645000000     5.936000000
O    -5.018000000     0.534000000     1.712000000
H    -5.419000000    -0.215000000     1.270000000
H    -4.136000000     0.236000000     1.935000000
O    -3.390000000     5.527000000    -3.511000000
H    -4.100000000     5.788000000    -2.925000000
H    -3.135000000     4.656000000    -3.206000000
O     3.507000000    -4.505000000     2.669000000
H     4.110000000    -3.770000000     2.780000000
H     3.428000000    -4.884000000     3.544000000
O    -2.866000000    -6.944000000    -2.867000000
H    -2.326000000    -7.316000000    -2.169000000
H    -3.106000000    -6.075000000    -2.547000000
