158
-3055.41533
C    -0.397000000     1.071000000    -0.887000000
H    -0.683000000     1.841000000    -1.599000000
C    -0.528000000    -0.301000000    -1.115000000
H    -0.934000000    -0.699000000    -2.042000000
C    -0.100000000    -1.237000000    -0.201000000
H    -0.167000000    -2.316000000    -0.323000000
C     0.435000000    -0.762000000     1.037000000
H     0.849000000    -1.526000000     1.689000000
C     0.581000000     0.621000000     1.231000000
H     0.917000000     1.066000000     2.165000000
C     0.158000000     1.540000000     0.247000000
C     0.284000000     3.051000000     0.454000000
O     0.085000000     3.911000000    -0.419000000
O     0.317000000     3.473000000     1.646000000
O     0.274000000    -7.231000000    -3.131000000
H     0.424000000    -8.115000000    -3.468000000
H    -0.047000000    -6.739000000    -3.886000000
O    -0.175000000     4.403000000    -3.039000000
H    -0.005000000     4.053000000    -2.164000000
H    -0.561000000     5.265000000    -2.881000000
O    -2.192000000    -2.712000000     3.061000000
H    -1.429000000    -2.793000000     2.488000000
H    -1.839000000    -2.818000000     3.945000000
O     3.748000000    -1.183000000     3.686000000
H     2.847000000    -1.241000000     4.005000000
H     4.144000000    -2.018000000     3.932000000
O    -1.159000000     0.373000000    -5.602000000
H    -0.490000000     0.478000000    -4.926000000
H    -0.967000000    -0.477000000    -5.999000000
O     3.178000000     1.975000000    -1.327000000
H     2.999000000     1.135000000    -0.905000000
H     2.850000000     1.869000000    -2.220000000
O    -2.670000000     3.728000000    -0.883000000
H    -1.732000000     3.912000000    -0.842000000
H    -2.880000000     3.356000000    -0.026000000
O     0.994000000    -5.020000000    -1.172000000
H     1.758000000    -4.453000000    -1.281000000
H     1.080000000    -5.674000000    -1.866000000
O     2.806000000     5.592000000    -4.342000000
H     2.725000000     6.419000000    -4.817000000
H     2.562000000     5.809000000    -3.442000000
O     1.224000000     0.092000000     5.033000000
H     0.532000000    -0.386000000     4.576000000
H     0.984000000     1.014000000     4.933000000
O    -2.280000000    -4.697000000    -4.266000000
H    -1.899000000    -4.342000000    -3.463000000
H    -2.710000000    -3.948000000    -4.679000000
O    -1.333000000     4.596000000    -5.612000000
H    -0.777000000     4.607000000    -4.833000000
H    -2.093000000     5.126000000    -5.370000000
O    -3.792000000     0.100000000     3.596000000
H    -4.086000000    -0.616000000     4.159000000
H    -3.545000000    -0.326000000     2.776000000
O    -4.091000000    -3.434000000    -0.165000000
H    -4.895000000    -3.953000000    -0.167000000
H    -4.375000000    -2.554000000     0.083000000
O    -3.302000000    -1.381000000    -3.142000000
H    -3.632000000    -1.977000000    -2.469000000
H    -3.518000000    -1.811000000    -3.969000000
O     0.929000000     6.628000000     0.365000000
H     0.594000000     6.733000000     1.256000000
H     0.930000000     5.682000000     0.219000000
O    -3.694000000     4.180000000    -3.431000000
H    -3.657000000     3.231000000    -3.544000000
H    -3.304000000     4.335000000    -2.571000000
O     3.465000000     6.249000000     4.154000000
H     3.370000000     5.509000000     3.555000000
H     2.779000000     6.117000000     4.809000000
O    -0.086000000    -5.990000000    -5.707000000
H     0.390000000    -5.476000000    -6.360000000
H    -0.777000000    -5.403000000    -5.398000000
O    -3.395000000     6.622000000     0.366000000
H    -4.124000000     6.287000000     0.887000000
H    -2.879000000     5.846000000     0.146000000
O     3.348000000    -1.024000000    -0.886000000
H     3.928000000    -0.987000000    -0.126000000
H     2.577000000    -1.499000000    -0.576000000
O     2.543000000    -4.959000000    -4.783000000
H     2.781000000    -5.797000000    -4.387000000
H     2.921000000    -4.994000000    -5.662000000
O     1.295000000     1.998000000    -3.625000000
H     0.666000000     2.609000000    -3.241000000
H     1.712000000     2.495000000    -4.329000000
O    -1.298000000     6.839000000    -3.675000000
H    -1.519000000     6.748000000    -4.602000000
H    -1.948000000     7.454000000    -3.334000000
O     4.951000000    -1.284000000     1.234000000
H     5.703000000    -0.786000000     1.555000000
H     4.348000000    -1.312000000     1.976000000
O     0.440000000     6.965000000     3.093000000
H    -0.012000000     7.454000000     3.780000000
H     1.260000000     6.684000000     3.498000000
O    -3.232000000     2.890000000     1.967000000
H    -2.761000000     3.614000000     2.380000000
H    -2.770000000     2.105000000     2.262000000
O     0.506000000     2.613000000     4.572000000
H    -0.053000000     3.200000000     5.081000000
H     0.393000000     2.902000000     3.666000000
O    -0.132000000     9.004000000    -1.377000000
H    -1.089000000     8.970000000    -1.369000000
H     0.139000000     8.230000000    -0.885000000
O     3.174000000    -3.762000000    -2.047000000
H     3.349000000    -3.884000000    -2.981000000
H     3.477000000    -2.873000000    -1.861000000
O     1.867000000    -0.639000000    -3.391000000
H     2.514000000    -0.649000000    -2.685000000
H     1.670000000     0.289000000    -3.522000000
O     2.705000000     4.173000000     2.582000000
H     1.774000000     3.967000000     2.487000000
H     3.102000000     3.865000000     1.767000000
O     0.860000000    -2.535000000    -5.167000000
H     1.387000000    -3.317000000    -5.003000000
H     0.933000000    -2.023000000    -4.362000000
O    -1.105000000    -3.113000000     5.442000000
H    -0.279000000    -3.261000000     4.982000000
H    -0.846000000    -2.739000000     6.285000000
O    -1.430000000    -7.652000000    -0.550000000
H    -1.039000000    -7.324000000    -1.359000000
H    -2.232000000    -7.140000000    -0.447000000
O    -1.695000000     5.014000000     2.664000000
H    -1.163000000     5.785000000     2.860000000
H    -1.187000000     4.533000000     2.011000000
O     0.380000000    -4.999000000     1.764000000
H     0.856000000    -4.601000000     1.036000000
H    -0.451000000    -5.281000000     1.381000000
O    -1.542000000    -4.273000000    -1.678000000
H    -1.966000000    -3.804000000    -0.959000000
H    -0.672000000    -4.490000000    -1.341000000
O     4.657000000     0.541000000     5.778000000
H     4.198000000     1.376000000     5.683000000
H     4.240000000    -0.035000000     5.138000000
O    -2.106000000    -5.000000000     1.008000000
H    -2.643000000    -5.743000000     0.732000000
H    -2.657000000    -4.234000000     0.850000000
O    -3.995000000    -6.568000000    -0.444000000
H    -4.459000000    -7.050000000     0.240000000
H    -4.688000000    -6.205000000    -0.995000000
O     1.473000000    -3.361000000     4.513000000
H     1.600000000    -3.945000000     3.765000000
H     2.122000000    -3.649000000     5.155000000
O     3.725000000     3.147000000     4.984000000
H     3.240000000     3.090000000     4.160000000
H     4.294000000     3.909000000     4.875000000
O    -3.149000000    -0.048000000     0.333000000
H    -2.305000000    -0.363000000     0.011000000
H    -3.331000000     0.731000000    -0.192000000
O    -3.380000000     1.154000000    -4.327000000
H    -2.472000000     1.165000000    -4.629000000
H    -3.466000000     0.324000000    -3.858000000
O     3.642000000     4.268000000     0.054000000
H     3.584000000     4.811000000    -0.733000000
H     3.355000000     3.401000000    -0.232000000
O     2.747000000     6.550000000    -1.670000000
H     2.169000000     6.559000000    -0.907000000
H     3.274000000     7.344000000    -1.581000000
O    -0.197000000    -6.746000000     3.642000000
H    -1.095000000    -7.056000000     3.530000000
H    -0.124000000    -6.002000000     3.044000000
