158
-3034.63018
C    -0.087000000     1.184000000    -0.945000000
H    -0.083000000     1.951000000    -1.716000000
C    -0.012000000    -0.237000000    -1.296000000
H    -0.096000000    -0.574000000    -2.326000000
C     0.193000000    -1.184000000    -0.278000000
H     0.327000000    -2.299000000    -0.458000000
C     0.218000000    -0.821000000     1.038000000
H     0.287000000    -1.627000000     1.764000000
C    -0.015000000     0.515000000     1.404000000
H     0.154000000     0.846000000     2.426000000
C    -0.205000000     1.523000000     0.419000000
C    -0.545000000     2.940000000     0.870000000
O    -1.161000000     3.672000000     0.088000000
O    -0.391000000     3.349000000     1.999000000
O     2.277000000    -6.042000000    -1.823000000
H     1.465000000    -5.758000000    -2.244000000
H     2.287000000    -5.580000000    -0.985000000
O    -3.383000000     5.571000000    -3.754000000
H    -2.848000000     6.359000000    -3.664000000
H    -2.878000000     4.886000000    -3.316000000
O    -2.511000000    -1.291000000     1.133000000
H    -3.061000000    -0.569000000     1.437000000
H    -1.615000000    -0.975000000     1.249000000
O     2.481000000    -2.599000000    -3.123000000
H     1.545000000    -2.557000000    -3.320000000
H     2.648000000    -3.524000000    -2.945000000
O    -3.154000000    -0.324000000    -1.642000000
H    -2.847000000    -0.791000000    -2.419000000
H    -2.495000000    -0.511000000    -0.974000000
O    -0.970000000     0.790000000    -4.699000000
H    -1.025000000     0.232000000    -3.923000000
H    -0.924000000     0.177000000    -5.432000000
O    -1.282000000     5.907000000     1.513000000
H    -0.643000000     5.733000000     2.204000000
H    -1.389000000     5.065000000     1.069000000
O     0.070000000    -4.333000000     1.405000000
H    -0.492000000    -4.067000000     0.677000000
H     0.931000000    -4.463000000     1.008000000
O     1.404000000     2.207000000     5.132000000
H     1.254000000     2.709000000     4.330000000
H     2.347000000     2.040000000     5.136000000
O     2.721000000    -4.300000000     0.134000000
H     2.893000000    -3.417000000    -0.191000000
H     3.113000000    -4.314000000     1.007000000
O     5.353000000    -5.210000000     0.227000000
H     4.419000000    -5.324000000     0.056000000
H     5.389000000    -4.582000000     0.949000000
O    -0.932000000    -1.163000000    -6.596000000
H    -0.299000000    -1.834000000    -6.850000000
H    -1.309000000    -0.865000000    -7.424000000
O    -3.983000000    -3.668000000     2.728000000
H    -3.262000000    -4.220000000     3.030000000
H    -3.555000000    -2.938000000     2.280000000
O    -3.708000000     5.446000000     4.472000000
H    -3.836000000     5.885000000     3.631000000
H    -3.430000000     4.560000000     4.239000000
O    -0.139000000    -7.249000000     1.021000000
H    -0.108000000    -7.369000000     1.970000000
H    -0.260000000    -6.307000000     0.902000000
O    -3.180000000     2.542000000    -2.588000000
H    -3.062000000     2.213000000    -3.479000000
H    -3.292000000     1.754000000    -2.055000000
O     4.541000000    -3.410000000     2.539000000
H     3.815000000    -3.249000000     3.141000000
H     4.799000000    -2.540000000     2.236000000
O     0.456000000    -4.631000000    -3.263000000
H     0.681000000    -5.052000000    -4.092000000
H    -0.494000000    -4.515000000    -3.303000000
O    -1.951000000    -7.176000000    -2.260000000
H    -1.976000000    -6.795000000    -1.383000000
H    -1.216000000    -7.789000000    -2.235000000
O     2.713000000     5.824000000     1.267000000
H     2.676000000     6.781000000     1.264000000
H     2.783000000     5.585000000     0.343000000
O     2.700000000    -2.787000000     5.108000000
H     1.941000000    -3.290000000     4.811000000
H     2.407000000    -2.368000000     5.917000000
O     1.879000000     4.122000000     3.216000000
H     2.300000000     4.639000000     2.529000000
H     1.050000000     3.841000000     2.830000000
O    -2.021000000    -1.933000000    -3.658000000
H    -2.163000000    -2.874000000    -3.563000000
H    -2.257000000    -1.745000000    -4.567000000
O    -1.218000000     4.185000000    -2.388000000
H    -1.790000000     3.454000000    -2.619000000
H    -1.274000000     4.241000000    -1.434000000
O    -0.677000000     7.299000000    -0.663000000
H    -0.711000000     6.694000000     0.078000000
H     0.044000000     7.893000000    -0.455000000
O    -2.609000000     2.741000000     3.914000000
H    -2.605000000     1.784000000     3.894000000
H    -2.004000000     2.998000000     3.218000000
O    -1.371000000     7.418000000    -3.201000000
H    -0.544000000     7.652000000    -3.623000000
H    -1.113000000     7.070000000    -2.348000000
O    -0.366000000     2.905000000    -6.417000000
H    -0.655000000     2.336000000    -5.703000000
H    -0.921000000     3.681000000    -6.344000000
O     3.259000000    -1.626000000     0.172000000
H     3.788000000    -0.876000000     0.447000000
H     2.610000000    -1.254000000    -0.426000000
O    -3.379000000    -6.243000000     0.506000000
H    -2.889000000    -5.423000000     0.456000000
H    -4.229000000    -5.993000000     0.867000000
O     4.226000000     2.363000000    -2.576000000
H     4.702000000     2.587000000    -3.375000000
H     3.488000000     1.832000000    -2.876000000
O    -1.026000000    -2.398000000     4.314000000
H    -0.554000000    -2.963000000     3.702000000
H    -0.828000000    -2.762000000     5.177000000
O     1.373000000     4.733000000    -3.515000000
H     1.391000000     4.257000000    -4.346000000
H     0.473000000     4.634000000    -3.202000000
O     1.712000000     5.819000000     5.360000000
H     1.807000000     5.187000000     4.648000000
H     2.607000000     5.973000000     5.665000000
O     3.357000000    -0.192000000    -3.779000000
H     2.788000000    -0.191000000    -4.548000000
H     3.206000000    -1.044000000    -3.370000000
O    -5.162000000     6.452000000    -0.741000000
H    -4.322000000     6.823000000    -0.471000000
H    -5.619000000     6.269000000     0.080000000
O    -1.822000000     3.323000000     6.696000000
H    -1.867000000     3.708000000     5.821000000
H    -1.664000000     2.392000000     6.541000000
O    -1.955000000    -3.892000000    -0.363000000
H    -2.522000000    -3.229000000     0.032000000
H    -2.306000000    -4.012000000    -1.245000000
O    -2.137000000     0.127000000     4.069000000
H    -1.694000000     0.298000000     4.900000000
H    -1.876000000    -0.764000000     3.837000000
O     4.614000000    -1.128000000     4.135000000
H     5.263000000    -1.769000000     4.426000000
H     3.771000000    -1.557000000     4.282000000
O     2.889000000     4.677000000    -1.381000000
H     2.302000000     4.833000000    -2.122000000
H     3.134000000     3.755000000    -1.460000000
O    -3.729000000     3.131000000     0.249000000
H    -2.857000000     3.427000000     0.509000000
H    -3.870000000     3.527000000    -0.611000000
O    -3.196000000     8.151000000    -0.482000000
H    -3.133000000     8.983000000    -0.013000000
H    -2.288000000     7.868000000    -0.591000000
O    -2.587000000    -4.434000000    -2.889000000
H    -3.510000000    -4.414000000    -2.637000000
H    -2.407000000    -5.357000000    -3.067000000
O    -4.354000000     0.847000000     1.493000000
H    -4.424000000     1.786000000     1.317000000
H    -5.159000000     0.475000000     1.133000000
O    -0.540000000     0.870000000     6.537000000
H    -0.052000000     1.483000000     5.987000000
H    -0.053000000     0.846000000     7.360000000
O    -0.907000000     8.628000000     2.242000000
H    -0.284000000     8.292000000     2.886000000
H    -1.000000000     7.919000000     1.606000000
O     0.749000000    -4.664000000     3.958000000
H     1.085000000    -5.544000000     4.132000000
H     0.335000000    -4.731000000     3.098000000
