158
-3072.33591
C    -0.313000000     1.448000000    -0.261000000
H    -0.370000000     2.489000000    -0.566000000
C    -0.401000000     0.382000000    -1.170000000
H    -0.557000000     0.572000000    -2.229000000
C    -0.133000000    -0.908000000    -0.847000000
H    -0.119000000    -1.685000000    -1.616000000
C     0.157000000    -1.216000000     0.479000000
H     0.443000000    -2.256000000     0.620000000
C     0.208000000    -0.211000000     1.438000000
H     0.512000000    -0.470000000     2.450000000
C     0.003000000     1.161000000     1.080000000
C     0.033000000     2.171000000     2.225000000
O    -0.727000000     3.151000000     2.252000000
O     0.752000000     1.976000000     3.247000000
O     3.252000000     0.335000000    -2.007000000
H     4.118000000     0.695000000    -1.814000000
H     2.651000000     1.065000000    -1.859000000
O     0.415000000    -2.142000000    -4.449000000
H     1.248000000    -1.675000000    -4.382000000
H     0.646000000    -2.989000000    -4.831000000
O     3.566000000    -1.100000000     0.615000000
H     3.197000000    -0.669000000     1.386000000
H     3.212000000    -0.609000000    -0.126000000
O    -2.932000000     2.772000000     0.551000000
H    -2.182000000     2.928000000     1.125000000
H    -3.561000000     2.305000000     1.100000000
O     2.373000000     3.540000000    -2.551000000
H     1.458000000     3.821000000    -2.547000000
H     2.685000000     3.722000000    -1.665000000
O     0.650000000    -2.445000000     4.928000000
H     0.762000000    -1.497000000     4.993000000
H     1.112000000    -2.687000000     4.125000000
O    -3.900000000     0.775000000    -5.538000000
H    -2.968000000     0.597000000    -5.411000000
H    -4.342000000     0.179000000    -4.933000000
O     2.436000000     1.377000000     6.963000000
H     2.012000000     0.772000000     6.355000000
H     1.717000000     1.736000000     7.483000000
O    -2.637000000    -6.416000000    -3.763000000
H    -2.848000000    -7.178000000    -3.223000000
H    -1.692000000    -6.302000000    -3.657000000
O     4.651000000    -2.914000000    -5.468000000
H     5.563000000    -2.720000000    -5.252000000
H     4.156000000    -2.621000000    -4.703000000
O     0.688000000     2.176000000    -4.834000000
H     1.430000000     2.435000000    -4.288000000
H     0.257000000     3.000000000    -5.059000000
O    -2.152000000    -3.268000000     5.805000000
H    -1.463000000    -3.480000000     5.175000000
H    -2.888000000    -3.826000000     5.552000000
O    -3.262000000    -2.547000000    -1.503000000
H    -3.572000000    -3.450000000    -1.438000000
H    -2.778000000    -2.519000000    -2.328000000
O     1.052000000     5.147000000     1.063000000
H     0.938000000     5.993000000     1.497000000
H     0.356000000     4.598000000     1.425000000
O    -2.655000000     2.563000000    -2.096000000
H    -2.370000000     1.763000000    -1.653000000
H    -3.261000000     2.975000000    -1.480000000
O     2.214000000     3.663000000     4.997000000
H     2.354000000     2.936000000     5.603000000
H     1.734000000     3.276000000     4.265000000
O     4.773000000     2.435000000     1.828000000
H     5.224000000     3.273000000     1.933000000
H     5.452000000     1.778000000     1.983000000
O    -1.187000000     0.075000000    -5.632000000
H    -0.490000000     0.725000000    -5.548000000
H    -0.766000000    -0.757000000    -5.415000000
O    -1.617000000     5.470000000     2.976000000
H    -2.528000000     5.234000000     3.151000000
H    -1.271000000     4.733000000     2.472000000
O    -4.191000000    -5.022000000    -2.005000000
H    -3.590000000    -5.289000000    -2.701000000
H    -3.961000000    -5.581000000    -1.263000000
O     2.569000000    -2.825000000     2.631000000
H     2.876000000    -2.758000000     1.726000000
H     3.211000000    -3.392000000     3.059000000
O    -1.839000000    -3.222000000    -6.782000000
H    -1.843000000    -2.456000000    -7.357000000
H    -0.948000000    -3.565000000    -6.848000000
O    -2.360000000     5.336000000    -0.442000000
H    -2.488000000     4.456000000    -0.089000000
H    -3.232000000     5.610000000    -0.725000000
O     2.965000000    -1.202000000    -4.319000000
H     2.990000000    -0.711000000    -3.498000000
H     3.125000000    -0.545000000    -4.997000000
O    -0.322000000     4.543000000    -2.532000000
H    -1.155000000     4.090000000    -2.659000000
H    -0.345000000     4.837000000    -1.622000000
O     0.838000000     7.683000000     1.783000000
H     1.410000000     7.507000000     2.530000000
H     0.014000000     7.973000000     2.175000000
O    -1.540000000     8.220000000     2.845000000
H    -1.495000000     7.315000000     3.154000000
H    -2.003000000     8.688000000     3.540000000
O    -3.391000000     0.589000000     2.454000000
H    -3.962000000     0.464000000     3.213000000
H    -2.993000000    -0.270000000     2.311000000
O     0.448000000     0.193000000     5.106000000
H    -0.464000000     0.421000000     5.288000000
H     0.692000000     0.753000000     4.369000000
O    -0.531000000     7.212000000    -1.148000000
H    -1.142000000     6.551000000    -0.821000000
H     0.116000000     7.307000000    -0.450000000
O     3.011000000    -7.019000000     0.372000000
H     2.964000000    -7.669000000    -0.329000000
H     3.417000000    -6.255000000    -0.038000000
O     2.655000000    -4.088000000    -1.576000000
H     3.524000000    -4.427000000    -1.358000000
H     2.684000000    -3.168000000    -1.311000000
O     2.234000000     6.573000000     4.021000000
H     1.561000000     6.857000000     4.638000000
H     2.474000000     5.694000000     4.315000000
O    -0.199000000     4.879000000    -5.195000000
H    -0.986000000     5.424000000    -5.195000000
H     0.048000000     4.815000000    -4.273000000
O     3.148000000     0.869000000     3.443000000
H     2.282000000     1.260000000     3.560000000
H     3.624000000     1.499000000     2.902000000
O     2.266000000    -5.435000000    -4.042000000
H     3.173000000    -5.643000000    -4.268000000
H     2.322000000    -5.026000000    -3.178000000
O     0.785000000    -4.537000000    -6.528000000
H     1.320000000    -5.008000000    -5.888000000
H     1.303000000    -4.555000000    -7.333000000
O    -3.944000000     4.347000000     2.723000000
H    -4.265000000     4.175000000     1.838000000
H    -4.195000000     3.571000000     3.225000000
O    -1.737000000     2.472000000     4.670000000
H    -2.192000000     1.944000000     4.014000000
H    -1.036000000     2.906000000     4.184000000
O    -3.699000000     3.562000000    -4.809000000
H    -3.346000000     3.053000000    -4.079000000
H    -3.404000000     3.095000000    -5.591000000
O     4.522000000    -1.166000000     4.563000000
H     3.951000000    -0.447000000     4.294000000
H     4.825000000    -1.552000000     3.741000000
O    -2.638000000     5.111000000     6.002000000
H    -1.906000000     5.725000000     5.951000000
H    -2.399000000     4.403000000     5.404000000
O    -2.676000000    -1.735000000     1.209000000
H    -1.798000000    -1.417000000     1.419000000
H    -2.722000000    -1.701000000     0.253000000
O    -2.326000000    -2.596000000    -3.960000000
H    -2.541000000    -3.081000000    -4.756000000
H    -1.379000000    -2.461000000    -4.010000000
O    -4.375000000    -4.067000000     2.705000000
H    -3.644000000    -3.611000000     2.289000000
H    -4.565000000    -3.551000000     3.488000000
O    -4.680000000    -1.080000000    -3.897000000
H    -3.867000000    -1.575000000    -3.796000000
H    -5.112000000    -1.153000000    -3.046000000
O     3.024000000     3.733000000    -0.030000000
H     2.255000000     4.206000000     0.288000000
H     3.476000000     3.447000000     0.765000000
O     0.097000000    -6.791000000    -4.284000000
H     0.898000000    -6.273000000    -4.203000000
H    -0.005000000    -6.926000000    -5.226000000
