158
-3026.49096
C    -0.585000000     0.844000000    -1.097000000
H    -1.135000000     1.253000000    -1.941000000
C    -0.009000000    -0.400000000    -1.256000000
H     0.165000000    -0.804000000    -2.251000000
C     0.518000000    -1.104000000    -0.160000000
H     1.021000000    -2.038000000    -0.354000000
C     0.424000000    -0.571000000     1.122000000
H     0.868000000    -1.110000000     1.955000000
C    -0.180000000     0.673000000     1.284000000
H    -0.276000000     1.042000000     2.301000000
C    -0.663000000     1.411000000     0.168000000
C    -1.123000000     2.828000000     0.395000000
O    -1.947000000     3.304000000    -0.352000000
O    -0.787000000     3.443000000     1.363000000
O     0.364000000    -6.306000000    -3.550000000
H    -0.280000000    -6.037000000    -4.205000000
H     0.060000000    -5.904000000    -2.736000000
O    -2.588000000     5.260000000    -4.580000000
H    -2.425000000     6.136000000    -4.229000000
H    -2.916000000     4.760000000    -3.833000000
O    -2.921000000    -1.129000000     0.879000000
H    -2.196000000    -0.686000000     0.439000000
H    -2.516000000    -1.563000000     1.630000000
O     1.834000000    -4.380000000    -5.467000000
H     2.053000000    -4.747000000    -6.324000000
H     1.768000000    -3.438000000    -5.620000000
O     0.522000000     2.968000000    -3.604000000
H     0.529000000     2.117000000    -3.165000000
H    -0.057000000     2.845000000    -4.356000000
O     3.333000000    -5.562000000     0.598000000
H     4.179000000    -5.116000000     0.637000000
H     3.539000000    -6.483000000     0.757000000
O    -1.504000000     5.973000000     1.158000000
H    -1.917000000     5.720000000     0.333000000
H    -1.013000000     5.197000000     1.429000000
O    -0.769000000    -5.426000000    -1.376000000
H    -1.702000000    -5.208000000    -1.366000000
H    -0.737000000    -6.352000000    -1.138000000
O     2.173000000     2.500000000     4.648000000
H     1.356000000     2.575000000     5.141000000
H     2.081000000     3.132000000     3.935000000
O     2.987000000    -6.510000000    -3.996000000
H     3.489000000    -5.723000000    -4.209000000
H     2.086000000    -6.200000000    -3.897000000
O     0.732000000    -3.235000000    -2.858000000
H     0.721000000    -4.026000000    -3.397000000
H     0.040000000    -3.376000000    -2.213000000
O     3.484000000    -2.967000000    -2.338000000
H     2.551000000    -3.169000000    -2.406000000
H     3.538000000    -2.024000000    -2.494000000
O    -1.248000000     3.110000000    -5.667000000
H    -1.800000000     3.806000000    -5.310000000
H    -0.989000000     3.430000000    -6.531000000
O    -4.601000000     4.219000000     1.257000000
H    -4.233000000     4.054000000     0.389000000
H    -4.445000000     3.408000000     1.742000000
O    -2.169000000     5.096000000     4.330000000
H    -3.056000000     5.087000000     4.688000000
H    -2.234000000     4.599000000     3.515000000
O    -4.119000000     1.627000000    -3.637000000
H    -3.513000000     0.972000000    -3.981000000
H    -4.340000000     2.170000000    -4.393000000
O     6.038000000    -0.736000000    -0.782000000
H     6.083000000    -1.187000000     0.061000000
H     5.103000000    -0.689000000    -0.980000000
O     1.456000000     6.030000000     0.455000000
H     1.931000000     6.820000000     0.198000000
H     0.961000000     5.783000000    -0.327000000
O     2.152000000    -3.614000000     5.401000000
H     2.559000000    -4.415000000     5.069000000
H     1.725000000    -3.227000000     4.637000000
O     1.095000000     4.355000000     3.012000000
H     1.627000000     4.825000000     2.370000000
H     0.381000000     3.976000000     2.500000000
O     0.840000000    -6.952000000     1.874000000
H     0.870000000    -6.076000000     1.489000000
H     1.740000000    -7.121000000     2.155000000
O    -5.303000000     0.368000000     1.507000000
H    -5.498000000     0.566000000     0.591000000
H    -4.346000000     0.367000000     1.552000000
O    -2.140000000     0.023000000    -4.722000000
H    -1.591000000    -0.748000000    -4.578000000
H    -1.664000000     0.538000000    -5.373000000
O     0.197000000     4.706000000    -1.574000000
H     0.446000000     4.198000000    -2.346000000
H    -0.351000000     4.112000000    -1.062000000
O     5.390000000    -1.370000000     2.109000000
H     4.689000000    -1.543000000     2.738000000
H     5.980000000    -2.118000000     2.196000000
O    -0.844000000     8.402000000    -0.137000000
H    -1.070000000     7.702000000     0.474000000
H    -0.256000000     8.972000000     0.358000000
O    -2.951000000     2.512000000     2.947000000
H    -2.682000000     1.715000000     3.403000000
H    -2.232000000     2.697000000     2.342000000
O    -0.962000000     6.901000000    -2.694000000
H    -0.591000000     6.087000000    -2.353000000
H    -0.736000000     7.560000000    -2.037000000
O     5.133000000    -5.088000000    -2.528000000
H     5.638000000    -4.758000000    -1.784000000
H     4.239000000    -4.789000000    -2.361000000
O     2.841000000     1.248000000     0.122000000
H     2.713000000     0.561000000    -0.533000000
H     2.021000000     1.266000000     0.614000000
O     3.733000000    -0.031000000    -2.674000000
H     4.539000000     0.384000000    -2.982000000
H     3.240000000    -0.219000000    -3.473000000
O    -1.883000000    -3.090000000     2.511000000
H    -1.173000000    -3.165000000     1.874000000
H    -1.604000000    -3.637000000     3.246000000
O     1.468000000     5.479000000     5.831000000
H     1.376000000     5.185000000     4.925000000
H     1.990000000     6.279000000     5.772000000
O     1.864000000    -1.207000000    -4.692000000
H     1.284000000    -0.938000000    -5.404000000
H     1.284000000    -1.629000000    -4.058000000
O    -5.980000000     5.777000000    -2.593000000
H    -5.548000000     6.592000000    -2.335000000
H    -5.344000000     5.093000000    -2.386000000
O    -0.565000000     7.150000000     3.331000000
H    -0.698000000     6.463000000     3.984000000
H    -0.725000000     6.717000000     2.492000000
O     3.809000000     4.039000000    -0.809000000
H     3.512000000     3.180000000    -0.508000000
H     3.213000000     4.659000000    -0.389000000
O    -0.461000000     3.033000000     5.403000000
H    -1.131000000     2.387000000     5.180000000
H    -0.712000000     3.817000000     4.915000000
O    -3.323000000    -4.571000000    -1.427000000
H    -3.989000000    -5.250000000    -1.531000000
H    -3.626000000    -4.049000000    -0.684000000
O    -1.742000000     0.542000000     4.589000000
H    -0.886000000     0.128000000     4.701000000
H    -2.361000000    -0.080000000     4.970000000
O     4.257000000    -1.103000000     5.280000000
H     4.951000000    -1.272000000     5.916000000
H     3.513000000    -1.617000000     5.593000000
O    -3.671000000     4.177000000    -2.193000000
H    -2.911000000     3.914000000    -1.675000000
H    -4.249000000     3.414000000    -2.176000000
O     5.068000000     1.318000000     1.745000000
H     5.204000000     0.381000000     1.889000000
H     4.394000000     1.359000000     1.066000000
O    -3.970000000     7.550000000    -2.897000000
H    -3.922000000     8.434000000    -2.532000000
H    -3.248000000     7.079000000    -2.480000000
O    -1.811000000    -2.957000000    -5.218000000
H    -2.671000000    -3.137000000    -4.840000000
H    -1.527000000    -3.796000000    -5.580000000
O    -5.277000000     1.409000000    -1.059000000
H    -4.798000000     1.315000000    -1.883000000
H    -6.012000000     1.982000000    -1.274000000
O     1.021000000     0.029000000     5.134000000
H     1.555000000     0.750000000     4.799000000
H     1.574000000    -0.393000000     5.791000000
O     0.714000000    -4.559000000     0.892000000
H     1.658000000    -4.618000000     1.042000000
H     0.597000000    -4.845000000    -0.014000000
