158
-2988.01191
C     0.047000000     0.170000000    -1.428000000
H    -0.101000000     0.190000000    -2.505000000
C     0.203000000    -1.009000000    -0.763000000
H     0.202000000    -1.960000000    -1.290000000
C     0.258000000    -1.022000000     0.617000000
H     0.446000000    -2.001000000     1.131000000
C     0.135000000     0.136000000     1.354000000
H     0.195000000     0.150000000     2.439000000
C    -0.121000000     1.380000000     0.613000000
H    -0.293000000     2.311000000     1.147000000
C    -0.241000000     1.330000000    -0.760000000
C    -0.610000000     2.572000000    -1.636000000
O    -0.867000000     2.390000000    -2.775000000
O    -0.742000000     3.674000000    -1.134000000
O     1.050000000     2.341000000    -4.392000000
H     0.857000000     1.816000000    -5.169000000
H     0.242000000     2.315000000    -3.879000000
O    -2.711000000    -0.444000000     0.651000000
H    -1.794000000    -0.319000000     0.408000000
H    -2.686000000    -1.090000000     1.357000000
O     2.922000000    -4.220000000     3.296000000
H     1.984000000    -4.149000000     3.476000000
H     3.214000000    -4.954000000     3.836000000
O    -0.070000000     0.064000000    -6.261000000
H    -0.538000000    -0.738000000    -6.494000000
H     0.676000000    -0.237000000    -5.741000000
O     3.266000000     2.495000000    -2.473000000
H     3.880000000     1.763000000    -2.420000000
H     2.616000000     2.215000000    -3.118000000
O    -3.841000000     2.688000000    -1.687000000
H    -4.279000000     3.538000000    -1.645000000
H    -2.908000000     2.900000000    -1.706000000
O     1.192000000    -3.949000000    -2.942000000
H     0.621000000    -3.847000000    -2.181000000
H     1.187000000    -4.889000000    -3.122000000
O     1.580000000     5.060000000    -5.283000000
H     1.111000000     4.864000000    -4.472000000
H     2.493000000     4.846000000    -5.090000000
O     1.921000000     0.770000000     4.571000000
H     1.024000000     0.713000000     4.241000000
H     2.264000000     1.581000000     4.194000000
O     1.656000000    -0.302000000     7.420000000
H     1.685000000    -0.617000000     6.517000000
H     2.385000000    -0.746000000     7.853000000
O    -2.154000000    -4.903000000    -4.460000000
H    -1.426000000    -4.322000000    -4.237000000
H    -2.618000000    -4.447000000    -5.163000000
O    -4.468000000     4.388000000     3.396000000
H    -4.176000000     3.633000000     2.884000000
H    -4.560000000     5.092000000     2.753000000
O    -2.493000000    -2.701000000     3.235000000
H    -3.033000000    -2.104000000     3.753000000
H    -2.118000000    -3.304000000     3.878000000
O    -3.920000000    -1.241000000    -2.356000000
H    -3.687000000    -0.710000000    -1.595000000
H    -3.476000000    -2.077000000    -2.211000000
O    -1.495000000     6.320000000    -0.435000000
H    -1.805000000     6.087000000     0.441000000
H    -1.396000000     5.481000000    -0.884000000
O    -2.469000000     1.781000000    -5.002000000
H    -1.971000000     1.962000000    -5.799000000
H    -1.864000000     1.985000000    -4.290000000
O    -4.939000000     5.901000000     1.059000000
H    -5.242000000     6.673000000     0.580000000
H    -4.764000000     5.251000000     0.379000000
O     3.185000000    -0.210000000    -0.632000000
H     3.451000000    -0.434000000     0.260000000
H     2.245000000    -0.390000000    -0.655000000
O    -3.613000000     7.444000000    -2.381000000
H    -3.133000000     7.412000000    -1.553000000
H    -3.939000000     8.343000000    -2.434000000
O     3.653000000     0.095000000    -6.299000000
H     3.382000000    -0.403000000    -5.527000000
H     4.606000000     0.150000000    -6.227000000
O     1.110000000     5.196000000    -2.654000000
H     1.837000000     4.576000000    -2.602000000
H     0.419000000     4.800000000    -2.124000000
O     4.214000000    -3.121000000     1.226000000
H     4.509000000    -2.311000000     1.641000000
H     3.660000000    -3.540000000     1.885000000
O     0.450000000     4.038000000     5.364000000
H     0.576000000     4.906000000     4.982000000
H     1.301000000     3.817000000     5.742000000
O     5.633000000    -0.947000000     1.934000000
H     5.821000000    -0.450000000     1.138000000
H     6.254000000    -0.608000000     2.580000000
O     0.664000000     8.120000000    -0.879000000
H     0.060000000     7.380000000    -0.814000000
H     0.250000000     8.812000000    -0.363000000
O    -3.450000000     2.105000000     2.086000000
H    -2.715000000     2.701000000     2.234000000
H    -3.092000000     1.419000000     1.524000000
O     3.084000000     3.273000000     3.488000000
H     3.139000000     4.212000000     3.665000000
H     3.111000000     3.207000000     2.533000000
O     4.084000000    -3.471000000    -2.739000000
H     3.308000000    -3.199000000    -3.229000000
H     3.774000000    -4.179000000    -2.174000000
O     4.529000000    -0.446000000    -3.065000000
H     4.019000000    -0.269000000    -2.275000000
H     4.464000000    -1.393000000    -3.185000000
O     2.972000000    -4.940000000    -0.590000000
H     2.023000000    -4.919000000    -0.718000000
H     3.136000000    -4.285000000     0.089000000
O    -2.634000000    -4.355000000     0.884000000
H    -2.367000000    -4.144000000     1.778000000
H    -3.507000000    -4.738000000     0.979000000
O     2.859000000     3.248000000     0.234000000
H     2.336000000     4.031000000     0.408000000
H     2.630000000     3.001000000    -0.662000000
O     1.440000000    -1.585000000    -4.676000000
H     1.809000000    -2.249000000    -5.259000000
H     1.044000000    -2.086000000    -3.963000000
O    -5.097000000     5.292000000    -2.320000000
H    -5.466000000     5.487000000    -3.181000000
H    -4.513000000     6.028000000    -2.138000000
O    -5.222000000     2.426000000    -4.374000000
H    -4.934000000     3.319000000    -4.183000000
H    -4.409000000     1.933000000    -4.491000000
O    -2.318000000     5.868000000    -6.550000000
H    -1.925000000     6.716000000    -6.343000000
H    -1.858000000     5.247000000    -5.984000000
O     0.416000000    -3.744000000     5.090000000
H     0.138000000    -4.599000000     4.760000000
H     0.592000000    -3.892000000     6.019000000
O    -1.470000000     3.628000000     3.365000000
H    -0.874000000     3.552000000     4.109000000
H    -1.420000000     4.550000000     3.110000000
O    -0.013000000    -4.948000000    -0.555000000
H    -0.425000000    -5.786000000    -0.764000000
H    -0.617000000    -4.530000000     0.059000000
O    -3.196000000    -3.830000000    -1.732000000
H    -2.796000000    -4.699000000    -1.767000000
H    -3.167000000    -3.590000000    -0.806000000
O     3.473000000    -1.274000000     5.284000000
H     2.930000000    -0.579000000     4.911000000
H     3.358000000    -2.013000000     4.687000000
O    -0.376000000    -5.959000000     3.224000000
H    -1.219000000    -6.389000000     3.083000000
H     0.270000000    -6.582000000     2.891000000
O    -2.170000000     4.657000000    -3.901000000
H    -2.091000000     5.412000000    -3.318000000
H    -1.839000000     3.921000000    -3.385000000
O    -5.792000000     0.702000000    -0.723000000
H    -4.959000000     1.087000000    -0.996000000
H    -6.234000000     0.480000000    -1.542000000
O    -0.469000000    -1.119000000     4.957000000
H    -1.359000000    -1.109000000     5.309000000
H    -0.190000000    -2.031000000     5.037000000
O    -3.886000000    -0.421000000    -5.065000000
H    -3.450000000     0.369000000    -4.746000000
H    -4.103000000    -0.911000000    -4.273000000
O     2.425000000     6.205000000    -0.010000000
H     1.831000000     6.921000000    -0.234000000
H     3.272000000     6.476000000    -0.365000000
O    -1.620000000     1.898000000     6.451000000
H    -2.131000000     2.652000000     6.157000000
H    -0.724000000     2.094000000     6.177000000
