158
-3055.86544
C    -0.456000000     0.820000000    -1.136000000
H    -1.016000000     1.297000000    -1.937000000
C    -0.343000000    -0.532000000    -1.150000000
H    -0.687000000    -1.017000000    -2.060000000
C     0.409000000    -1.191000000    -0.145000000
H     0.564000000    -2.316000000    -0.229000000
C     0.828000000    -0.459000000     0.971000000
H     1.269000000    -1.012000000     1.797000000
C     0.418000000     0.872000000     1.091000000
H     0.494000000     1.460000000     2.002000000
C    -0.229000000     1.590000000     0.014000000
C    -0.677000000     2.972000000     0.198000000
O    -1.325000000     3.536000000    -0.674000000
O    -0.475000000     3.541000000     1.249000000
O     2.641000000     3.909000000    -2.226000000
H     3.495000000     3.977000000    -1.800000000
H     2.014000000     3.887000000    -1.503000000
O     3.981000000    -5.323000000     0.344000000
H     4.906000000    -5.476000000     0.152000000
H     3.652000000    -4.849000000    -0.419000000
O    -3.201000000     1.024000000    -3.846000000
H    -3.417000000     1.824000000    -3.369000000
H    -2.339000000     1.196000000    -4.225000000
O     4.059000000     0.620000000     0.343000000
H     4.459000000     1.073000000    -0.399000000
H     3.605000000     1.310000000     0.827000000
O    -5.062000000     1.219000000    -0.378000000
H    -5.052000000     0.392000000    -0.860000000
H    -4.768000000     1.871000000    -1.013000000
O    -3.191000000    -3.607000000     3.584000000
H    -3.193000000    -3.189000000     4.445000000
H    -2.616000000    -3.057000000     3.052000000
O     2.894000000    -1.286000000    -1.761000000
H     2.005000000    -0.961000000    -1.619000000
H     3.337000000    -1.145000000    -0.923000000
O     0.746000000    -4.124000000    -5.747000000
H     0.787000000    -4.644000000    -4.945000000
H    -0.023000000    -3.566000000    -5.633000000
O    -1.663000000    -1.630000000     2.395000000
H    -2.478000000    -1.363000000     1.969000000
H    -1.026000000    -0.966000000     2.132000000
O    -5.108000000     4.996000000    -0.643000000
H    -5.562000000     5.778000000    -0.958000000
H    -5.702000000     4.621000000     0.007000000
O     1.061000000     3.294000000    -4.531000000
H     0.794000000     2.378000000    -4.608000000
H     1.632000000     3.313000000    -3.763000000
O    -0.973000000    -4.563000000    -0.801000000
H    -1.924000000    -4.453000000    -0.828000000
H    -0.819000000    -5.125000000    -0.041000000
O     1.211000000     6.290000000     4.480000000
H     0.805000000     6.964000000     3.934000000
H     0.625000000     6.208000000     5.233000000
O     4.183000000     0.148000000     5.732000000
H     3.875000000     0.777000000     5.080000000
H     5.040000000    -0.131000000     5.410000000
O     0.813000000     2.846000000     3.958000000
H     0.008000000     2.329000000     4.001000000
H     0.586000000     3.596000000     3.408000000
O    -1.222000000     7.854000000     2.201000000
H    -1.016000000     8.373000000     1.423000000
H    -1.376000000     6.970000000     1.866000000
O     3.503000000     3.058000000     1.180000000
H     2.895000000     3.796000000     1.135000000
H     4.367000000     3.451000000     1.061000000
O    -3.764000000     3.119000000    -1.951000000
H    -2.875000000     3.154000000    -1.598000000
H    -4.194000000     3.896000000    -1.593000000
O     3.492000000     4.169000000     5.242000000
H     3.478000000     3.358000000     4.734000000
H     2.777000000     4.692000000     4.879000000
O    -3.155000000     7.751000000    -2.174000000
H    -2.676000000     7.075000000    -1.693000000
H    -4.045000000     7.707000000    -1.825000000
O     1.326000000    -0.515000000     5.034000000
H     2.224000000    -0.619000000     4.720000000
H     1.352000000    -0.818000000     5.941000000
O    -2.372000000     2.621000000     3.085000000
H    -1.836000000     2.943000000     2.360000000
H    -1.823000000     1.964000000     3.513000000
O    -3.011000000     5.096000000     3.871000000
H    -3.003000000     5.333000000     2.944000000
H    -2.659000000     4.206000000     3.893000000
O    -2.842000000     6.257000000    -4.591000000
H    -2.840000000     6.782000000    -3.790000000
H    -2.340000000     5.473000000    -4.364000000
O    -0.110000000     0.588000000    -4.760000000
H     0.597000000     0.201000000    -4.243000000
H     0.089000000     0.341000000    -5.662000000
O     3.359000000    -4.157000000    -2.365000000
H     2.796000000    -3.419000000    -2.598000000
H     3.034000000    -4.884000000    -2.897000000
O     3.604000000    -5.820000000     2.899000000
H     3.790000000    -5.588000000     1.989000000
H     2.704000000    -6.147000000     2.883000000
O     1.210000000    -3.319000000     3.675000000
H     2.039000000    -2.928000000     3.399000000
H     0.579000000    -2.601000000     3.630000000
O    -1.083000000     5.802000000    -2.149000000
H    -0.304000000     6.217000000    -1.779000000
H    -1.100000000     4.930000000    -1.754000000
O     5.209000000    -2.268000000    -3.142000000
H     4.406000000    -2.236000000    -2.623000000
H     5.322000000    -3.195000000    -3.353000000
O    -2.883000000     5.211000000     1.001000000
H    -2.176000000     4.692000000     0.617000000
H    -3.662000000     4.959000000     0.504000000
O     1.342000000     5.036000000     0.369000000
H     0.589000000     4.542000000     0.693000000
H     1.065000000     5.951000000     0.413000000
O    -0.270000000    -5.504000000     4.546000000
H     0.492000000    -4.934000000     4.449000000
H    -0.980000000    -4.914000000     4.797000000
O     0.795000000     7.643000000    -0.951000000
H     1.721000000     7.545000000    -1.172000000
H     0.524000000     8.442000000    -1.404000000
O    -0.739000000    -6.206000000     1.728000000
H     0.188000000    -6.289000000     1.506000000
H    -0.742000000    -5.928000000     2.644000000
O    -0.957000000     0.812000000     4.362000000
H    -1.748000000     0.301000000     4.537000000
H    -0.258000000     0.330000000     4.804000000
O    -1.397000000    -2.494000000    -5.240000000
H    -1.953000000    -2.358000000    -4.472000000
H    -1.630000000    -1.780000000    -5.833000000
O     0.928000000    -5.387000000    -3.055000000
H     0.401000000    -4.947000000    -2.387000000
H     0.575000000    -6.276000000    -3.091000000
O    -3.818000000    -4.457000000    -1.084000000
H    -4.148000000    -5.262000000    -1.483000000
H    -3.624000000    -4.700000000    -0.179000000
O    -4.302000000    -5.274000000     1.472000000
H    -3.874000000    -4.567000000     1.954000000
H    -4.266000000    -6.024000000     2.065000000
O     0.631000000     6.237000000    -4.723000000
H     0.008000000     6.152000000    -4.001000000
H     1.113000000     5.410000000    -4.721000000
O     3.378000000     1.749000000     3.768000000
H     3.574000000     2.174000000     2.933000000
H     2.440000000     1.891000000     3.894000000
O     3.465000000    -1.557000000     3.331000000
H     4.026000000    -2.329000000     3.408000000
H     4.067000000    -0.843000000     3.124000000
O     1.786000000    -7.062000000     0.103000000
H     2.221000000    -7.703000000    -0.458000000
H     2.394000000    -6.324000000     0.142000000
O    -4.867000000    -2.046000000    -0.682000000
H    -4.461000000    -2.912000000    -0.718000000
H    -4.966000000    -1.866000000     0.253000000
O    -1.708000000     3.681000000    -5.122000000
H    -1.280000000     3.817000000    -5.967000000
H    -0.986000000     3.602000000    -4.498000000
O     2.363000000     0.086000000    -4.254000000
H     2.958000000    -0.415000000    -4.812000000
H     2.663000000    -0.093000000    -3.363000000
O    -3.582000000    -1.816000000    -3.645000000
H    -4.084000000    -2.038000000    -2.861000000
H    -3.408000000    -0.879000000    -3.561000000
