158
-3032.82440
C    -0.566000000     0.442000000    -1.335000000
H    -1.013000000     0.704000000    -2.291000000
C    -0.760000000    -0.823000000    -0.797000000
H    -1.327000000    -1.522000000    -1.405000000
C    -0.236000000    -1.123000000     0.443000000
H    -0.318000000    -2.145000000     0.906000000
C     0.485000000    -0.141000000     1.154000000
H     1.004000000    -0.342000000     2.088000000
C     0.654000000     1.130000000     0.694000000
H     1.194000000     1.856000000     1.296000000
C     0.196000000     1.367000000    -0.616000000
C     0.511000000     2.767000000    -1.210000000
O     0.316000000     3.024000000    -2.347000000
O     1.046000000     3.654000000    -0.478000000
O     2.246000000     5.991000000    -2.020000000
H     2.552000000     6.303000000    -1.168000000
H     1.785000000     5.175000000    -1.824000000
O    -1.842000000     3.457000000     2.888000000
H    -1.776000000     4.202000000     2.291000000
H    -0.939000000     3.162000000     3.004000000
O     0.129000000    -5.115000000     0.642000000
H     0.341000000    -5.974000000     1.008000000
H    -0.573000000    -5.289000000     0.015000000
O    -0.233000000    -6.742000000     4.603000000
H    -1.121000000    -7.018000000     4.833000000
H    -0.108000000    -5.919000000     5.076000000
O     3.099000000     3.544000000     1.157000000
H     2.391000000     3.410000000     0.527000000
H     3.052000000     2.782000000     1.735000000
O     1.513000000    -3.169000000     2.290000000
H     1.493000000    -4.096000000     2.053000000
H     0.592000000    -2.928000000     2.391000000
O    -3.646000000    -3.951000000     5.988000000
H    -4.535000000    -3.714000000     6.254000000
H    -3.564000000    -3.607000000     5.098000000
O    -4.119000000    -5.661000000    -0.878000000
H    -4.461000000    -5.002000000    -1.481000000
H    -4.436000000    -6.494000000    -1.229000000
O    -2.541000000    -2.436000000    -3.758000000
H    -2.415000000    -3.102000000    -3.082000000
H    -3.224000000    -1.865000000    -3.407000000
O    -1.128000000    -2.177000000     3.429000000
H    -1.433000000    -2.918000000     2.906000000
H    -1.817000000    -1.519000000     3.337000000
O     0.297000000    -1.145000000    -7.123000000
H     0.054000000    -0.934000000    -6.221000000
H    -0.374000000    -1.763000000    -7.413000000
O    -5.759000000    -3.282000000     1.310000000
H    -5.880000000    -4.227000000     1.215000000
H    -6.060000000    -2.917000000     0.478000000
O     1.332000000     8.211000000    -3.521000000
H     1.616000000     7.393000000    -3.113000000
H     0.994000000     7.947000000    -4.377000000
O    -4.255000000    -2.927000000     3.412000000
H    -4.831000000    -3.145000000     2.680000000
H    -4.037000000    -2.004000000     3.279000000
O     3.712000000    -1.821000000     1.309000000
H     3.021000000    -2.405000000     1.619000000
H     4.412000000    -2.408000000     1.024000000
O     3.482000000     1.304000000     2.745000000
H     4.191000000     0.692000000     2.946000000
H     2.683000000     0.819000000     2.951000000
O     3.473000000     2.389000000    -2.511000000
H     2.633000000     2.616000000    -2.112000000
H     3.967000000     1.968000000    -1.807000000
O     2.992000000     5.465000000     4.405000000
H     2.612000000     5.547000000     3.530000000
H     3.935000000     5.548000000     4.265000000
O     3.285000000     7.066000000     0.191000000
H     4.061000000     6.596000000     0.495000000
H     3.626000000     7.888000000    -0.161000000
O    -2.739000000     1.226000000     0.747000000
H    -2.418000000     1.568000000    -0.087000000
H    -2.458000000     1.872000000     1.395000000
O     5.165000000     5.556000000     1.535000000
H     5.160000000     5.531000000     2.492000000
H     4.563000000     4.859000000     1.274000000
O    -1.807000000     6.929000000    -3.656000000
H    -2.069000000     7.574000000    -2.999000000
H    -1.421000000     6.214000000    -3.149000000
O     2.526000000    -1.148000000    -1.020000000
H     1.690000000    -0.918000000    -0.616000000
H     3.146000000    -1.174000000    -0.291000000
O    -3.244000000    -0.393000000     2.858000000
H    -3.068000000    -0.058000000     1.979000000
H    -2.960000000     0.309000000     3.443000000
O     1.110000000     2.975000000     3.645000000
H     1.673000000     2.802000000     4.399000000
H     1.616000000     3.580000000     3.102000000
O    -0.400000000    -0.843000000    -4.649000000
H    -0.990000000    -1.465000000    -4.223000000
H     0.445000000    -0.983000000    -4.222000000
O    -1.624000000    -6.793000000    -0.482000000
H    -2.236000000    -6.072000000    -0.634000000
H    -2.185000000    -7.548000000    -0.299000000
O     4.703000000     1.293000000    -0.654000000
H     4.971000000     0.485000000    -1.092000000
H     4.617000000     1.049000000     0.267000000
O     1.169000000    -7.126000000     2.182000000
H     0.817000000    -6.855000000     3.030000000
H     2.097000000    -7.289000000     2.350000000
O    -1.442000000     5.183000000    -1.357000000
H    -0.594000000     4.740000000    -1.357000000
H    -2.084000000     4.474000000    -1.402000000
O     0.247000000    -4.072000000    -1.957000000
H     0.375000000    -3.166000000    -1.675000000
H     0.715000000    -4.594000000    -1.305000000
O     1.555000000     5.810000000     2.024000000
H     2.067000000     6.442000000     1.519000000
H     1.525000000     5.029000000     1.470000000
O    -1.403000000     5.665000000     1.279000000
H    -0.469000000     5.874000000     1.276000000
H    -1.679000000     5.787000000     0.370000000
O    -0.982000000    -5.422000000    -3.933000000
H    -0.704000000    -4.893000000    -3.185000000
H    -0.760000000    -4.892000000    -4.698000000
O     3.012000000    -1.026000000     4.518000000
H     3.931000000    -1.056000000     4.252000000
H     2.538000000    -1.427000000     3.789000000
O     0.214000000     2.763000000    -5.023000000
H     0.105000000     2.859000000    -4.077000000
H     0.333000000     1.823000000    -5.157000000
O     5.957000000     2.824000000     2.853000000
H     6.012000000     3.233000000     3.717000000
H     5.027000000     2.625000000     2.741000000
O     2.836000000    -0.006000000     7.327000000
H     1.901000000     0.103000000     7.496000000
H     2.880000000    -0.360000000     6.439000000
O     0.158000000    -2.079000000     6.092000000
H    -0.068000000    -1.236000000     6.484000000
H    -0.418000000    -2.152000000     5.331000000
O    -1.592000000     4.296000000    -6.491000000
H    -0.844000000     3.914000000    -6.032000000
H    -2.337000000     4.130000000    -5.914000000
O     0.010000000     6.695000000    -5.716000000
H    -0.621000000     6.714000000    -4.995000000
H    -0.241000000     5.929000000    -6.232000000
O     3.480000000     3.919000000    -4.722000000
H     3.397000000     3.310000000    -3.988000000
H     2.604000000     4.293000000    -4.822000000
O    -4.670000000    -1.064000000    -2.411000000
H    -4.892000000    -0.838000000    -1.508000000
H    -4.849000000    -0.267000000    -2.909000000
O     1.002000000    -4.558000000     5.498000000
H     0.527000000    -3.774000000     5.775000000
H     1.580000000    -4.252000000     4.799000000
O    -4.014000000     1.196000000    -4.702000000
H    -4.204000000     2.127000000    -4.582000000
H    -3.257000000     1.180000000    -5.288000000
O    -3.670000000     4.042000000    -4.360000000
H    -3.539000000     3.675000000    -3.485000000
H    -4.508000000     4.502000000    -4.305000000
O    -3.602000000     2.718000000    -1.400000000
H    -4.417000000     2.231000000    -1.518000000
H    -3.824000000     3.409000000    -0.775000000
O     2.049000000    -1.772000000    -3.619000000
H     2.962000000    -1.867000000    -3.890000000
H     2.098000000    -1.404000000    -2.737000000
