158
-3021.93341
C     1.353000000     0.080000000     0.679000000
H     2.354000000     0.183000000     1.090000000
C     1.034000000     0.701000000    -0.542000000
H     1.697000000     1.308000000    -1.153000000
C    -0.306000000     0.632000000    -1.001000000
H    -0.583000000     1.048000000    -1.941000000
C    -1.186000000    -0.224000000    -0.437000000
H    -2.161000000    -0.415000000    -0.879000000
C    -0.864000000    -0.911000000     0.723000000
H    -1.542000000    -1.683000000     1.077000000
C     0.425000000    -0.768000000     1.377000000
C     0.711000000    -1.416000000     2.684000000
O    -0.032000000    -2.290000000     3.059000000
O     1.782000000    -1.156000000     3.167000000
O     2.464000000    -5.538000000     2.313000000
H     3.233000000    -6.098000000     2.211000000
H     1.723000000    -6.108000000     2.106000000
O     0.788000000    -3.794000000     6.756000000
H     0.848000000    -2.925000000     7.155000000
H     1.270000000    -3.713000000     5.933000000
O     4.197000000    -0.285000000     3.609000000
H     3.309000000    -0.621000000     3.485000000
H     4.608000000    -0.373000000     2.749000000
O    -4.484000000    -1.359000000     4.026000000
H    -3.603000000    -1.679000000     4.219000000
H    -4.392000000    -0.891000000     3.196000000
O    -2.735000000    -5.423000000     2.213000000
H    -2.710000000    -5.955000000     3.009000000
H    -1.835000000    -5.441000000     1.886000000
O    -4.872000000     2.154000000    -0.617000000
H    -5.532000000     1.502000000    -0.381000000
H    -4.599000000     1.909000000    -1.501000000
O     1.180000000     2.746000000    -3.930000000
H     1.263000000     3.212000000    -4.761000000
H     2.082000000     2.617000000    -3.636000000
O     1.826000000     3.255000000     1.607000000
H     1.835000000     2.918000000     2.503000000
H     2.658000000     2.962000000     1.233000000
O    -4.668000000    -4.036000000     0.957000000
H    -3.963000000    -3.415000000     0.777000000
H    -4.226000000    -4.797000000     1.334000000
O     3.870000000    -1.413000000    -1.131000000
H     3.172000000    -1.971000000    -0.790000000
H     3.483000000    -0.983000000    -1.894000000
O     4.253000000    -4.860000000     5.877000000
H     4.952000000    -4.732000000     5.236000000
H     3.462000000    -4.556000000     5.432000000
O    -1.015000000     6.314000000    -1.434000000
H    -1.183000000     6.249000000    -0.493000000
H    -1.078000000     7.250000000    -1.624000000
O     0.315000000    -0.034000000    -4.960000000
H    -0.491000000    -0.518000000    -5.142000000
H     0.029000000     0.871000000    -4.837000000
O    -3.334000000    -1.685000000    -3.502000000
H    -2.643000000    -1.931000000    -4.117000000
H    -3.549000000    -2.498000000    -3.044000000
O    -4.249000000     3.401000000     1.866000000
H    -4.561000000     2.733000000     2.477000000
H    -4.336000000     2.995000000     1.004000000
O    -4.514000000     1.868000000    -5.658000000
H    -5.037000000     2.632000000    -5.416000000
H    -4.533000000     1.309000000    -4.882000000
O     2.030000000     1.933000000     3.937000000
H     2.778000000     1.358000000     4.100000000
H     1.274000000     1.346000000     3.932000000
O    -2.221000000    -2.778000000     4.349000000
H    -1.967000000    -3.645000000     4.664000000
H    -1.442000000    -2.448000000     3.901000000
O    -0.596000000    -0.240000000    -8.235000000
H    -1.264000000    -0.768000000    -8.673000000
H    -1.045000000     0.131000000    -7.475000000
O    -5.826000000    -0.662000000    -0.396000000
H    -6.167000000    -1.428000000    -0.857000000
H    -6.590000000    -0.289000000     0.046000000
O     1.758000000     5.958000000    -2.391000000
H     1.495000000     5.038000000    -2.361000000
H     0.946000000     6.444000000    -2.246000000
O     2.888000000    -3.705000000     0.223000000
H     2.151000000    -3.955000000    -0.334000000
H     2.875000000    -4.342000000     0.937000000
O     6.340000000    -0.343000000     5.413000000
H     5.767000000    -0.583000000     4.685000000
H     6.710000000    -1.174000000     5.711000000
O    -2.314000000     0.183000000    -6.337000000
H    -2.923000000    -0.553000000    -6.391000000
H    -2.822000000     0.886000000    -5.933000000
O    -0.255000000    -4.434000000     1.580000000
H     0.120000000    -3.838000000     2.229000000
H    -0.797000000    -3.873000000     1.025000000
O     3.905000000     2.306000000     0.274000000
H     4.437000000     1.525000000     0.423000000
H     4.328000000     2.988000000     0.795000000
O    -1.330000000     2.277000000     1.403000000
H    -0.501000000     1.906000000     1.100000000
H    -1.359000000     3.150000000     1.011000000
O     0.658000000     3.401000000    -0.922000000
H     0.662000000     2.462000000    -1.110000000
H     1.246000000     3.497000000    -0.172000000
O     0.071000000    -2.403000000    -1.896000000
H    -0.168000000    -1.524000000    -1.600000000
H     0.771000000    -2.259000000    -2.532000000
O    -2.884000000     5.125000000    -4.696000000
H    -3.271000000     5.357000000    -3.852000000
H    -3.582000000     5.284000000    -5.332000000
O    -0.721000000     1.434000000     3.953000000
H    -0.885000000     1.649000000     3.035000000
H    -0.659000000     2.283000000     4.391000000
O     2.906000000    -0.215000000    -3.544000000
H     2.051000000    -0.351000000    -3.952000000
H     3.035000000     0.733000000    -3.567000000
O     3.800000000     3.065000000    -3.611000000
H     3.960000000     3.520000000    -4.438000000
H     4.630000000     2.634000000    -3.410000000
O    -4.093000000     0.118000000     1.725000000
H    -3.249000000     0.514000000     1.507000000
H    -4.377000000    -0.302000000     0.913000000
O     0.653000000    -1.208000000     5.900000000
H    -0.284000000    -1.030000000     5.811000000
H     0.974000000    -1.252000000     4.999000000
O    -4.108000000     0.722000000    -3.050000000
H    -3.308000000     1.242000000    -3.129000000
H    -3.808000000    -0.186000000    -3.091000000
O    -2.199000000    -3.480000000    -0.861000000
H    -1.326000000    -3.114000000    -1.003000000
H    -2.353000000    -4.037000000    -1.624000000
O    -1.695000000     2.369000000    -3.977000000
H    -2.044000000     3.239000000    -4.171000000
H    -0.789000000     2.399000000    -4.286000000
O     1.374000000     0.476000000     8.062000000
H     2.313000000     0.498000000     7.877000000
H     1.032000000    -0.206000000     7.483000000
O     2.244000000     0.108000000    -6.990000000
H     2.691000000    -0.738000000    -6.996000000
H     1.392000000    -0.073000000    -6.593000000
O     2.206000000    -3.888000000     4.368000000
H     2.371000000    -4.492000000     3.644000000
H     1.809000000    -3.121000000     3.955000000
O     5.272000000     0.091000000     0.937000000
H     6.226000000     0.159000000     0.892000000
H     5.035000000    -0.443000000     0.179000000
O    -3.767000000     6.252000000    -2.246000000
H    -3.805000000     7.157000000    -1.937000000
H    -3.034000000     5.865000000    -1.767000000
O     4.943000000    -2.983000000     1.898000000
H     4.270000000    -2.678000000     2.507000000
H     4.462000000    -3.202000000     1.100000000
O     4.059000000     0.371000000     7.081000000
H     4.493000000     0.500000000     6.238000000
H     4.173000000    -0.560000000     7.270000000
O     5.023000000     4.705000000    -1.211000000
H     4.594000000     3.903000000    -1.509000000
H     5.136000000     4.580000000    -0.268000000
O    -1.298000000    -5.122000000     5.831000000
H    -0.883000000    -5.798000000     5.296000000
H    -0.573000000    -4.707000000     6.298000000
O     1.114000000     5.910000000    -5.173000000
H     1.239000000     5.750000000    -4.237000000
H     0.191000000     6.149000000    -5.253000000
