158
-3034.67617
C    -0.215000000     1.199000000    -0.862000000
H    -0.656000000     2.110000000    -1.260000000
C    -1.062000000     0.073000000    -0.843000000
H    -2.019000000     0.108000000    -1.356000000
C    -0.699000000    -0.991000000    -0.094000000
H    -1.350000000    -1.826000000    -0.159000000
C     0.473000000    -1.004000000     0.725000000
H     0.759000000    -1.869000000     1.318000000
C     1.374000000     0.072000000     0.709000000
H     2.296000000     0.071000000     1.286000000
C     0.986000000     1.239000000    -0.107000000
C     1.897000000     2.480000000    -0.050000000
O     1.561000000     3.455000000    -0.647000000
O     2.853000000     2.426000000     0.691000000
O     3.522000000     5.256000000    -0.515000000
H     4.336000000     4.959000000    -0.107000000
H     2.930000000     4.508000000    -0.439000000
O    -6.685000000    -0.597000000    -3.818000000
H    -5.762000000    -0.350000000    -3.755000000
H    -6.785000000    -0.924000000    -4.712000000
O    -1.758000000     2.739000000     2.000000000
H    -2.189000000     2.550000000     2.834000000
H    -0.826000000     2.767000000     2.213000000
O     2.154000000    -4.208000000     3.519000000
H     2.869000000    -4.814000000     3.326000000
H     1.359000000    -4.724000000     3.385000000
O    -4.497000000    -0.054000000    -0.186000000
H    -5.371000000     0.320000000    -0.076000000
H    -3.905000000     0.694000000    -0.115000000
O     4.513000000     3.224000000     2.553000000
H     3.989000000     2.964000000     1.795000000
H     4.220000000     2.644000000     3.256000000
O     1.632000000    -2.149000000     5.473000000
H     1.955000000    -2.333000000     4.591000000
H     0.796000000    -2.613000000     5.524000000
O    -3.511000000    -4.567000000     5.311000000
H    -4.138000000    -4.335000000     5.996000000
H    -3.790000000    -4.060000000     4.549000000
O    -2.583000000    -4.275000000     0.194000000
H    -3.364000000    -3.748000000     0.026000000
H    -2.883000000    -5.180000000     0.110000000
O    -1.866000000    -3.286000000    -5.476000000
H    -1.797000000    -2.812000000    -4.647000000
H    -1.993000000    -4.199000000    -5.219000000
O    -1.523000000    -2.638000000    -2.804000000
H    -0.696000000    -2.639000000    -2.323000000
H    -2.095000000    -3.216000000    -2.298000000
O     4.152000000    -4.442000000    -1.706000000
H     3.330000000    -4.013000000    -1.942000000
H     3.969000000    -4.868000000    -0.869000000
O    -0.918000000    -3.368000000     5.038000000
H    -1.284000000    -3.012000000     4.228000000
H    -1.526000000    -4.063000000     5.290000000
O    -4.769000000    -2.581000000     0.326000000
H    -5.598000000    -2.703000000    -0.136000000
H    -4.490000000    -1.697000000     0.088000000
O     3.795000000     6.911000000    -2.740000000
H     3.744000000     6.451000000    -1.902000000
H     2.943000000     6.761000000    -3.149000000
O     4.506000000    -1.614000000    -2.509000000
H     4.560000000    -2.205000000    -1.758000000
H     5.406000000    -1.552000000    -2.830000000
O    -4.431000000    -2.994000000     3.316000000
H    -4.934000000    -2.855000000     2.513000000
H    -3.613000000    -2.518000000     3.171000000
O     4.558000000    -0.978000000     3.686000000
H     5.366000000    -0.466000000     3.700000000
H     4.839000000    -1.874000000     3.872000000
O     2.674000000     1.033000000     3.682000000
H     3.291000000     0.304000000     3.609000000
H     1.898000000     0.649000000     4.090000000
O     4.600000000     0.659000000    -0.517000000
H     4.109000000     1.175000000     0.122000000
H     4.574000000    -0.235000000    -0.175000000
O     4.122000000     5.720000000     3.892000000
H     4.330000000     4.877000000     3.489000000
H     4.961000000     6.041000000     4.223000000
O    -7.487000000    -0.961000000    -1.284000000
H    -7.151000000    -1.788000000    -0.938000000
H    -7.342000000    -1.020000000    -2.229000000
O    -3.214000000    -5.188000000    -3.849000000
H    -3.977000000    -4.623000000    -3.968000000
H    -3.540000000    -6.071000000    -4.025000000
O     7.484000000     0.926000000    -0.547000000
H     6.603000000     1.114000000    -0.224000000
H     8.062000000     1.184000000     0.171000000
O    -3.360000000     2.416000000    -0.049000000
H    -3.975000000     3.110000000     0.189000000
H    -2.746000000     2.378000000     0.685000000
O     7.201000000     3.440000000     1.413000000
H     6.945000000     4.356000000     1.308000000
H     6.667000000     3.124000000     2.141000000
O     4.599000000    -1.893000000     0.945000000
H     5.428000000    -2.328000000     1.143000000
H     4.293000000    -1.564000000     1.790000000
O    -1.680000000    -2.434000000     2.590000000
H    -1.239000000    -1.717000000     2.134000000
H    -1.880000000    -3.068000000     1.901000000
O     0.504000000     2.715000000     3.495000000
H     1.450000000     2.570000000     3.518000000
H     0.230000000     2.659000000     4.410000000
O    -4.115000000     5.315000000    -3.217000000
H    -3.429000000     5.077000000    -2.593000000
H    -4.933000000     5.163000000    -2.744000000
O     0.425000000    -0.357000000    -4.146000000
H    -0.243000000    -0.939000000    -3.783000000
H     1.214000000    -0.556000000    -3.642000000
O    -0.020000000    -5.503000000     1.346000000
H    -0.578000000    -5.175000000     0.641000000
H    -0.555000000    -6.163000000     1.788000000
O     0.206000000     5.238000000    -1.938000000
H     0.814000000     4.514000000    -1.783000000
H    -0.102000000     5.482000000    -1.065000000
O     2.669000000    -3.855000000     0.438000000
H     3.409000000    -3.289000000     0.658000000
H     2.145000000    -3.888000000     1.238000000
O     0.895000000     4.779000000     1.565000000
H     1.072000000     4.324000000     0.742000000
H     0.864000000     4.084000000     2.222000000
O     1.333000000     7.521000000     1.728000000
H     1.894000000     7.718000000     0.978000000
H     1.103000000     6.598000000     1.620000000
O     0.687000000    -3.762000000    -1.566000000
H     1.211000000    -3.631000000    -0.776000000
H     1.316000000    -3.694000000    -2.285000000
O     0.822000000     0.445000000     5.479000000
H     1.286000000    -0.371000000     5.667000000
H    -0.104000000     0.214000000     5.545000000
O     1.823000000     3.088000000    -3.340000000
H     1.620000000     3.244000000    -2.417000000
H     0.969000000     2.961000000    -3.754000000
O     1.645000000     5.867000000    -4.072000000
H     1.584000000     4.923000000    -4.219000000
H     0.871000000     6.078000000    -3.550000000
O     4.495000000     2.055000000    -2.971000000
H     3.550000000     2.193000000    -3.022000000
H     4.607000000     1.422000000    -2.262000000
O     4.835000000     4.676000000    -4.386000000
H     4.747000000     5.588000000    -4.107000000
H     4.831000000     4.174000000    -3.571000000
O    -0.620000000    -5.796000000    -2.576000000
H    -0.202000000    -4.993000000    -2.264000000
H    -1.481000000    -5.514000000    -2.884000000
O    -3.886000000    -0.290000000    -3.185000000
H    -3.742000000    -1.169000000    -3.537000000
H    -3.695000000    -0.371000000    -2.251000000
O    -0.840000000     2.345000000    -4.261000000
H    -1.349000000     2.788000000    -3.583000000
H    -0.617000000     1.497000000    -3.877000000
O    -2.368000000     3.663000000    -2.290000000
H    -1.760000000     4.194000000    -1.776000000
H    -2.742000000     3.049000000    -1.659000000
O    -1.827000000     5.375000000     0.204000000
H    -1.531000000     5.932000000     0.924000000
H    -1.958000000     4.516000000     0.604000000
O     2.277000000    -0.377000000    -2.399000000
H     3.186000000    -0.665000000    -2.491000000
H     2.085000000    -0.485000000    -1.468000000
