158
-3028.20117
C    -0.207000000     0.449000000    -1.376000000
H    -0.483000000     0.635000000    -2.411000000
C    -0.342000000    -0.876000000    -0.905000000
H    -0.673000000    -1.669000000    -1.571000000
C     0.003000000    -1.220000000     0.446000000
H    -0.108000000    -2.293000000     0.739000000
C     0.412000000    -0.157000000     1.277000000
H     0.517000000    -0.272000000     2.353000000
C     0.628000000     1.149000000     0.766000000
H     1.171000000     1.905000000     1.328000000
C     0.286000000     1.491000000    -0.562000000
C     0.265000000     2.938000000    -1.098000000
O    -0.530000000     3.245000000    -1.991000000
O     1.187000000     3.702000000    -0.771000000
O     1.924000000     6.288000000    -1.671000000
H     1.729000000     5.644000000    -0.990000000
H     1.201000000     6.205000000    -2.293000000
O    -4.872000000    -4.911000000    -3.136000000
H    -4.089000000    -4.365000000    -3.200000000
H    -5.190000000    -4.979000000    -4.036000000
O    -4.762000000     0.775000000    -4.801000000
H    -3.966000000     0.299000000    -4.564000000
H    -5.475000000     0.231000000    -4.468000000
O     3.760000000     3.515000000     0.112000000
H     2.925000000     3.485000000    -0.355000000
H     4.322000000     2.904000000    -0.364000000
O    -2.048000000    -5.217000000     0.471000000
H    -1.512000000    -4.649000000    -0.083000000
H    -2.821000000    -5.409000000    -0.060000000
O    -0.531000000    -4.890000000    -2.317000000
H     0.386000000    -4.812000000    -2.055000000
H    -0.602000000    -5.770000000    -2.687000000
O    -2.630000000    -3.436000000    -3.986000000
H    -1.924000000    -3.685000000    -3.389000000
H    -2.544000000    -4.039000000    -4.724000000
O     3.159000000    -2.234000000    -0.364000000
H     3.210000000    -1.965000000     0.553000000
H     2.312000000    -1.905000000    -0.664000000
O    -2.800000000    -4.098000000     5.430000000
H    -2.804000000    -4.121000000     4.473000000
H    -3.375000000    -3.366000000     5.655000000
O     2.035000000    -5.813000000    -1.906000000
H     1.445000000    -6.444000000    -1.493000000
H     2.714000000    -5.655000000    -1.250000000
O    -1.361000000    -2.250000000     7.417000000
H    -1.077000000    -2.836000000     6.715000000
H    -0.911000000    -1.425000000     7.237000000
O    -3.515000000    -0.697000000    -0.221000000
H    -3.742000000     0.132000000     0.202000000
H    -2.977000000    -1.156000000     0.424000000
O     5.598000000     2.661000000    -1.624000000
H     6.417000000     3.050000000    -1.930000000
H     5.838000000     1.774000000    -1.357000000
O    -0.526000000    -7.063000000     2.153000000
H    -1.139000000    -7.791000000     2.051000000
H    -0.975000000    -6.315000000     1.759000000
O    -3.478000000     5.041000000    -0.660000000
H    -3.643000000     5.407000000     0.209000000
H    -3.593000000     5.780000000    -1.257000000
O    -3.360000000    -3.810000000     2.799000000
H    -2.909000000    -2.966000000     2.796000000
H    -3.137000000    -4.204000000     1.955000000
O     5.131000000    -1.566000000     1.844000000
H     4.843000000    -1.089000000     2.622000000
H     5.604000000    -2.323000000     2.189000000
O     2.212000000     0.781000000    -6.328000000
H     1.650000000     0.576000000    -5.580000000
H     1.756000000     1.489000000    -6.783000000
O     3.502000000     4.999000000     2.447000000
H     2.597000000     4.714000000     2.571000000
H     3.641000000     4.949000000     1.501000000
O    -2.454000000    -1.390000000     2.987000000
H    -1.675000000    -1.353000000     3.542000000
H    -3.069000000    -0.781000000     3.396000000
O    -0.082000000     3.246000000     4.556000000
H    -0.998000000     2.968000000     4.542000000
H     0.128000000     3.422000000     3.639000000
O    -5.597000000    -2.509000000     3.105000000
H    -4.679000000    -2.754000000     2.984000000
H    -6.028000000    -2.790000000     2.298000000
O    -0.485000000    -0.744000000     4.901000000
H    -0.595000000    -0.290000000     5.737000000
H    -0.037000000    -1.559000000     5.129000000
O     4.610000000     5.496000000    -2.012000000
H     4.579000000     4.540000000    -1.972000000
H     3.697000000     5.769000000    -1.922000000
O    -2.874000000     4.232000000    -4.035000000
H    -2.969000000     3.830000000    -3.172000000
H    -2.909000000     5.174000000    -3.866000000
O    -3.443000000    -1.077000000    -2.969000000
H    -3.334000000    -2.014000000    -3.130000000
H    -3.506000000    -1.003000000    -2.017000000
O    -0.509000000     8.169000000     0.352000000
H    -1.464000000     8.188000000     0.286000000
H    -0.232000000     7.592000000    -0.360000000
O    -2.049000000     3.248000000     0.890000000
H    -2.608000000     3.560000000     0.179000000
H    -2.019000000     2.299000000     0.773000000
O     2.346000000    -2.465000000     3.143000000
H     2.905000000    -1.697000000     3.264000000
H     1.779000000    -2.472000000     3.914000000
O     1.544000000    -1.733000000    -3.772000000
H     1.231000000    -2.527000000    -3.337000000
H     2.491000000    -1.854000000    -3.839000000
O     2.802000000     3.466000000    -2.924000000
H     2.142000000     3.125000000    -3.527000000
H     2.357000000     3.500000000    -2.077000000
O     0.237000000     4.837000000     1.742000000
H     0.790000000     4.559000000     1.013000000
H    -0.642000000     4.541000000     1.504000000
O     0.397000000    -7.690000000    -0.826000000
H     0.089000000    -7.275000000    -0.020000000
H     0.764000000    -8.527000000    -0.539000000
O     0.328000000    -3.818000000    -6.029000000
H     0.714000000    -3.039000000    -5.628000000
H     0.979000000    -4.506000000    -5.892000000
O    -5.613000000    -3.796000000     0.568000000
H    -6.351000000    -4.391000000     0.437000000
H    -4.964000000    -4.073000000    -0.079000000
O     1.628000000     1.607000000     5.868000000
H     2.191000000     2.241000000     6.311000000
H     0.994000000     2.142000000     5.390000000
O    -5.976000000     3.426000000    -1.628000000
H    -6.084000000     3.755000000    -2.521000000
H    -5.123000000     3.759000000    -1.352000000
O     3.895000000    -0.028000000     4.097000000
H     4.522000000     0.688000000     3.996000000
H     3.251000000     0.303000000     4.722000000
O     0.345000000     2.833000000    -4.387000000
H     0.045000000     1.931000000    -4.503000000
H    -0.173000000     3.166000000    -3.654000000
O    -0.793000000     5.933000000    -1.566000000
H    -1.666000000     5.805000000    -1.195000000
H    -0.462000000     5.047000000    -1.709000000
O     0.887000000    -3.237000000     5.367000000
H     0.240000000    -3.938000000     5.288000000
H     1.654000000    -3.661000000     5.753000000
O    -0.582000000     0.218000000    -5.172000000
H    -0.595000000    -0.246000000    -6.009000000
H    -0.694000000    -0.469000000    -4.515000000
O     1.181000000     4.859000000    -5.892000000
H     2.043000000     5.021000000    -5.509000000
H     0.878000000     4.055000000    -5.470000000
O     4.126000000    -4.769000000    -0.549000000
H     4.007000000    -5.122000000     0.332000000
H     3.866000000    -3.851000000    -0.476000000
O    -4.351000000    -6.098000000    -0.521000000
H    -4.671000000    -5.890000000    -1.399000000
H    -4.517000000    -7.035000000    -0.421000000
O    -3.431000000     2.778000000    -6.209000000
H    -3.197000000     3.550000000    -5.693000000
H    -4.032000000     2.289000000    -5.648000000
O    -2.817000000     2.002000000    -1.720000000
H    -1.960000000     2.427000000    -1.732000000
H    -2.724000000     1.259000000    -2.316000000
O     2.566000000    -5.058000000     1.701000000
H     2.700000000    -4.233000000     2.168000000
H     1.621000000    -5.206000000     1.742000000
