158
-2994.36224
C     0.065000000     1.443000000     0.086000000
H     0.015000000     2.529000000     0.101000000
C    -1.165000000     0.773000000    -0.050000000
H    -2.110000000     1.305000000     0.027000000
C    -1.035000000    -0.590000000    -0.235000000
H    -1.896000000    -1.209000000    -0.266000000
C     0.178000000    -1.193000000    -0.192000000
H     0.234000000    -2.276000000    -0.277000000
C     1.381000000    -0.508000000     0.096000000
H     2.310000000    -1.047000000     0.265000000
C     1.307000000     0.848000000     0.187000000
C     2.560000000     1.659000000     0.464000000
O     2.457000000     2.849000000     0.454000000
O     3.587000000     1.083000000     0.743000000
O     3.515000000     4.806000000     1.767000000
H     3.016000000     5.622000000     1.733000000
H     3.104000000     4.246000000     1.109000000
O    -1.816000000     3.396000000     3.048000000
H    -2.101000000     4.200000000     3.482000000
H    -1.026000000     3.136000000     3.520000000
O     1.861000000    -3.716000000     1.626000000
H     2.669000000    -4.143000000     1.911000000
H     2.131000000    -3.157000000     0.897000000
O    -3.293000000    -1.270000000    -3.363000000
H    -4.050000000    -1.274000000    -3.950000000
H    -3.020000000    -0.353000000    -3.332000000
O     3.586000000     0.687000000     3.641000000
H     3.643000000     0.792000000     2.692000000
H     2.923000000     0.009000000     3.768000000
O    -6.451000000    -3.379000000    -2.660000000
H    -6.886000000    -3.899000000    -1.985000000
H    -5.596000000    -3.166000000    -2.285000000
O     4.778000000     5.789000000    -1.211000000
H     5.470000000     5.879000000    -0.556000000
H     4.658000000     4.844000000    -1.303000000
O    -2.456000000    -5.201000000     0.022000000
H    -1.913000000    -5.454000000    -0.725000000
H    -2.445000000    -5.966000000     0.597000000
O    -0.092000000    -1.473000000    -4.369000000
H    -0.514000000    -2.305000000    -4.155000000
H    -0.580000000    -0.820000000    -3.868000000
O     1.171000000    -4.095000000    -3.298000000
H     0.219000000    -4.139000000    -3.212000000
H     1.393000000    -4.817000000    -3.886000000
O    -2.592000000    -5.476000000     4.476000000
H    -2.878000000    -4.611000000     4.184000000
H    -2.319000000    -5.922000000     3.673000000
O     7.555000000     2.035000000    -2.316000000
H     6.812000000     2.368000000    -1.813000000
H     8.322000000     2.429000000    -1.899000000
O    -5.135000000     0.713000000    -0.979000000
H    -4.979000000     0.510000000    -1.901000000
H    -5.833000000     0.113000000    -0.716000000
O     5.279000000     2.668000000    -0.954000000
H     4.785000000     1.917000000    -1.280000000
H     5.152000000     2.645000000    -0.005000000
O     6.901000000    -0.599000000    -0.684000000
H     7.327000000    -1.444000000    -0.834000000
H     6.555000000    -0.351000000    -1.541000000
O     1.619000000    -1.379000000     3.671000000
H     1.809000000    -2.249000000     3.319000000
H     0.670000000    -1.373000000     3.797000000
O     4.798000000    -1.417000000     1.041000000
H     4.229000000    -0.653000000     0.952000000
H     5.407000000    -1.350000000     0.306000000
O     3.740000000     3.260000000     5.375000000
H     3.826000000     2.538000000     4.752000000
H     4.547000000     3.232000000     5.888000000
O    -7.456000000    -0.863000000     0.233000000
H    -7.553000000    -0.301000000     1.001000000
H    -7.948000000    -1.655000000     0.451000000
O     6.370000000     1.294000000     1.781000000
H     6.789000000     0.779000000     1.092000000
H     5.447000000     1.325000000     1.528000000
O    -5.083000000     3.473000000    -1.101000000
H    -5.259000000     2.533000000    -1.142000000
H    -4.547000000     3.582000000    -0.315000000
O     6.030000000     0.535000000     4.858000000
H     6.686000000     0.465000000     4.164000000
H     5.225000000     0.784000000     4.403000000
O    -4.730000000     1.149000000    -3.714000000
H    -5.638000000     1.311000000    -3.972000000
H    -4.259000000     1.059000000    -4.542000000
O    -4.617000000     2.437000000     3.551000000
H    -3.754000000     2.811000000     3.372000000
H    -5.231000000     3.138000000     3.335000000
O    -0.223000000    -5.214000000     2.655000000
H     0.486000000    -4.606000000     2.447000000
H    -0.282000000    -5.784000000     1.888000000
O     2.224000000     7.100000000     0.643000000
H     1.754000000     6.325000000     0.336000000
H     2.594000000     7.486000000    -0.151000000
O    -3.654000000     6.231000000    -1.077000000
H    -3.901000000     5.389000000    -0.693000000
H    -3.118000000     6.652000000    -0.405000000
O    -3.738000000    -2.549000000     2.836000000
H    -3.798000000    -1.885000000     2.149000000
H    -4.600000000    -2.543000000     3.253000000
O     0.099000000     2.183000000     4.685000000
H    -0.226000000     1.370000000     4.298000000
H    -0.279000000     2.198000000     5.565000000
O    -3.646000000     4.569000000    -3.380000000
H    -3.530000000     5.104000000    -2.595000000
H    -4.185000000     3.833000000    -3.090000000
O    -1.929000000     1.338000000    -3.225000000
H    -1.382000000     1.709000000    -2.533000000
H    -2.698000000     1.906000000    -3.253000000
O     1.934000000    -6.258000000    -0.271000000
H     1.265000000    -5.579000000    -0.185000000
H     2.015000000    -6.626000000     0.609000000
O     1.364000000     4.820000000    -0.850000000
H     0.980000000     4.301000000    -1.557000000
H     1.791000000     4.175000000    -0.285000000
O     3.753000000    -3.114000000    -0.523000000
H     4.149000000    -2.724000000     0.256000000
H     3.682000000    -4.046000000    -0.315000000
O    -4.088000000    -0.062000000     1.849000000
H    -4.887000000     0.457000000     1.763000000
H    -3.756000000    -0.140000000     0.955000000
O     1.229000000     4.214000000     3.434000000
H     0.886000000     3.484000000     3.950000000
H     1.891000000     3.817000000     2.868000000
O    -4.995000000    -4.926000000     2.065000000
H    -4.281000000    -5.506000000     1.798000000
H    -4.574000000    -4.079000000     2.208000000
O     2.726000000    -1.777000000    -2.642000000
H     3.197000000    -2.291000000    -1.986000000
H     2.096000000    -2.391000000    -3.020000000
O     7.500000000     3.608000000     2.127000000
H     7.068000000     2.756000000     2.067000000
H     8.396000000     3.444000000     1.833000000
O    -1.134000000    -1.030000000     3.264000000
H    -1.806000000    -1.706000000     3.351000000
H    -1.272000000    -0.667000000     2.389000000
O    -1.794000000    -3.600000000    -3.724000000
H    -2.456000000    -4.290000000    -3.698000000
H    -2.291000000    -2.788000000    -3.628000000
O     3.884000000    -0.425000000    -4.821000000
H     4.803000000    -0.472000000    -4.559000000
H     3.410000000    -0.263000000    -4.005000000
O     7.398000000    -1.925000000     2.548000000
H     6.565000000    -1.516000000     2.313000000
H     7.653000000    -2.415000000     1.766000000
O    -4.034000000    -3.152000000    -1.452000000
H    -3.353000000    -3.546000000    -0.908000000
H    -3.626000000    -2.368000000    -1.817000000
O     0.511000000     3.810000000    -3.153000000
H     0.805000000     4.655000000    -3.492000000
H     0.713000000     3.188000000    -3.852000000
O    -2.636000000     4.236000000     0.512000000
H    -2.716000000     5.111000000     0.893000000
H    -2.249000000     3.706000000     1.209000000
O     1.959000000     0.823000000    -2.672000000
H     2.220000000    -0.069000000    -2.440000000
H     1.360000000     1.087000000    -1.974000000
O    -4.547000000    -6.654000000    -0.886000000
H    -3.772000000    -6.232000000    -0.514000000
H    -5.254000000    -6.433000000    -0.280000000
