158
-3019.12073
C     0.022000000     0.434000000    -1.500000000
H     0.047000000     0.485000000    -2.586000000
C    -0.996000000    -0.296000000    -0.829000000
H    -1.871000000    -0.684000000    -1.343000000
C    -0.903000000    -0.666000000     0.532000000
H    -1.782000000    -1.142000000     1.003000000
C     0.156000000    -0.183000000     1.272000000
H     0.155000000    -0.446000000     2.327000000
C     1.188000000     0.535000000     0.608000000
H     2.002000000     0.897000000     1.231000000
C     1.155000000     0.859000000    -0.746000000
C     2.342000000     1.551000000    -1.312000000
O     2.424000000     1.505000000    -2.528000000
O     3.112000000     2.278000000    -0.692000000
O    -3.300000000    -0.214000000    -3.547000000
H    -2.942000000    -1.085000000    -3.378000000
H    -2.709000000     0.165000000    -4.198000000
O     3.832000000     3.225000000     2.795000000
H     4.414000000     2.577000000     2.398000000
H     3.366000000     3.614000000     2.055000000
O     1.527000000     6.256000000    -2.986000000
H     2.383000000     6.221000000    -3.413000000
H     1.313000000     5.341000000    -2.803000000
O     5.204000000     2.180000000    -2.427000000
H     4.390000000     2.522000000    -2.059000000
H     4.976000000     1.305000000    -2.743000000
O     7.338000000    -0.448000000    -3.659000000
H     7.299000000    -0.215000000    -4.587000000
H     6.423000000    -0.457000000    -3.376000000
O    -2.921000000     1.102000000     3.378000000
H    -2.616000000     1.208000000     2.477000000
H    -2.988000000     1.995000000     3.715000000
O    -1.230000000     3.899000000    -5.292000000
H    -1.551000000     3.712000000    -6.174000000
H    -2.021000000     4.072000000    -4.781000000
O     2.981000000    -0.236000000     6.696000000
H     2.931000000     0.306000000     5.909000000
H     3.528000000    -0.979000000     6.442000000
O     1.082000000     0.952000000    -7.373000000
H     1.876000000     0.426000000    -7.284000000
H     1.135000000     1.589000000    -6.661000000
O     3.930000000    -2.042000000    -5.422000000
H     4.196000000    -2.515000000    -6.211000000
H     3.437000000    -1.289000000    -5.748000000
O     0.557000000    -5.399000000     4.495000000
H     0.545000000    -4.498000000     4.172000000
H    -0.061000000    -5.399000000     5.226000000
O    -5.177000000     0.917000000    -0.171000000
H    -5.544000000     1.702000000     0.236000000
H    -5.059000000     0.305000000     0.555000000
O     7.872000000     2.631000000    -3.045000000
H     8.411000000     2.024000000    -2.538000000
H     6.972000000     2.418000000    -2.796000000
O     3.018000000     1.107000000     4.172000000
H     3.298000000     0.359000000     3.645000000
H     3.015000000     1.844000000     3.561000000
O    -1.716000000    -3.696000000     2.193000000
H    -2.013000000    -3.991000000     1.333000000
H    -0.821000000    -3.391000000     2.046000000
O    -2.633000000    -3.320000000    -3.611000000
H    -1.733000000    -3.559000000    -3.833000000
H    -2.997000000    -4.106000000    -3.205000000
O     5.207000000     1.917000000     0.795000000
H     4.449000000     2.012000000     0.217000000
H     5.816000000     1.367000000     0.303000000
O    -4.789000000    -0.955000000     4.178000000
H    -4.530000000    -1.357000000     3.349000000
H    -4.210000000    -0.199000000     4.270000000
O    -1.324000000     2.447000000     1.104000000
H    -1.823000000     2.969000000     0.476000000
H    -1.020000000     1.692000000     0.600000000
O    -2.216000000    -3.112000000     6.889000000
H    -1.921000000    -2.987000000     7.792000000
H    -1.642000000    -2.549000000     6.370000000
O    -2.917000000    -4.457000000    -0.044000000
H    -3.491000000    -3.798000000    -0.435000000
H    -2.607000000    -4.976000000    -0.786000000
O     2.497000000     4.400000000     0.732000000
H     2.624000000     3.678000000     0.117000000
H     2.493000000     5.185000000     0.183000000
O     3.721000000     0.497000000    -7.187000000
H     3.996000000     1.313000000    -6.769000000
H     3.947000000     0.612000000    -8.110000000
O    -1.544000000     0.488000000    -5.577000000
H    -1.335000000     1.267000000    -6.092000000
H    -1.297000000    -0.245000000    -6.141000000
O    -4.021000000     2.090000000    -2.436000000
H    -4.446000000     1.807000000    -1.627000000
H    -3.814000000     1.276000000    -2.895000000
O     3.105000000     3.974000000     5.336000000
H     3.188000000     3.712000000     4.419000000
H     2.851000000     3.172000000     5.792000000
O     7.629000000     3.398000000     1.656000000
H     8.296000000     3.479000000     0.974000000
H     6.963000000     2.826000000     1.274000000
O    -1.829000000     3.488000000    -1.471000000
H    -1.132000000     3.564000000    -2.122000000
H    -2.588000000     3.181000000    -1.966000000
O     0.665000000    -2.734000000     4.412000000
H    -0.033000000    -2.099000000     4.573000000
H     0.994000000    -2.513000000     3.540000000
O     0.369000000    -3.701000000    -4.352000000
H     1.051000000    -4.262000000    -3.983000000
H    -0.254000000    -4.310000000    -4.748000000
O     4.459000000    -0.257000000    -3.169000000
H     3.778000000     0.201000000    -2.677000000
H     4.000000000    -0.979000000    -3.598000000
O     1.073000000    -3.538000000     1.249000000
H     1.097000000    -3.386000000     0.304000000
H     0.986000000    -4.487000000     1.336000000
O     0.498000000     4.230000000     2.825000000
H    -0.221000000     3.653000000     2.568000000
H     1.205000000     4.019000000     2.216000000
O     7.026000000     0.353000000    -0.481000000
H     7.061000000    -0.019000000    -1.363000000
H     6.969000000    -0.408000000     0.097000000
O    -4.663000000    -2.122000000     1.670000000
H    -4.023000000    -2.826000000     1.781000000
H    -4.865000000    -2.126000000     0.735000000
O     4.245000000    -1.471000000     2.933000000
H     4.790000000    -1.473000000     2.146000000
H     3.960000000    -2.380000000     3.029000000
O     0.886000000    -2.733000000    -1.495000000
H     0.955000000    -1.898000000    -1.032000000
H     0.603000000    -2.494000000    -2.378000000
O     5.958000000     0.290000000     4.678000000
H     5.067000000    -0.008000000     4.493000000
H     5.883000000     0.770000000     5.502000000
O    -1.325000000    -0.890000000     5.025000000
H    -1.566000000    -0.539000000     4.167000000
H    -1.883000000    -0.416000000     5.642000000
O     0.444000000     3.557000000    -3.223000000
H     1.131000000     2.891000000    -3.223000000
H     0.020000000     3.466000000    -4.076000000
O     1.336000000    -1.083000000    -4.464000000
H     0.625000000    -0.634000000    -4.922000000
H     1.133000000    -2.013000000    -4.561000000
O     6.037000000     5.359000000    -0.532000000
H     5.213000000     5.845000000    -0.557000000
H     5.772000000     4.439000000    -0.511000000
O     1.456000000    -2.808000000     7.128000000
H     1.226000000    -2.448000000     6.272000000
H     2.370000000    -2.554000000     7.257000000
O    -7.519000000    -0.897000000     2.120000000
H    -7.792000000    -0.405000000     2.894000000
H    -6.622000000    -1.168000000     2.312000000
O    -3.649000000    -4.021000000     3.989000000
H    -2.785000000    -4.003000000     3.578000000
H    -3.691000000    -3.210000000     4.496000000
O    -4.565000000    -2.546000000    -1.070000000
H    -5.489000000    -2.369000000    -1.248000000
H    -4.096000000    -2.095000000    -1.772000000
O     4.279000000     4.559000000    -3.305000000
H     4.472000000     5.194000000    -2.615000000
H     4.777000000     3.779000000    -3.059000000
O     2.583000000     2.819000000    -5.051000000
H     3.267000000     3.403000000    -4.725000000
H     2.633000000     2.050000000    -4.483000000
