158
-3042.20666
C     0.355000000     0.704000000    -1.298000000
H     0.732000000     1.320000000    -2.111000000
C    -0.338000000     1.305000000    -0.257000000
H    -0.724000000     2.317000000    -0.348000000
C    -0.687000000     0.584000000     0.869000000
H    -1.352000000     1.073000000     1.665000000
C    -0.170000000    -0.718000000     1.045000000
H    -0.213000000    -1.226000000     2.005000000
C     0.531000000    -1.317000000     0.009000000
H     0.910000000    -2.333000000     0.088000000
C     0.822000000    -0.629000000    -1.205000000
C     1.634000000    -1.317000000    -2.219000000
O     1.905000000    -0.762000000    -3.248000000
O     1.814000000    -2.524000000    -2.174000000
O     2.740000000    -2.601000000    -5.552000000
H     2.418000000    -2.008000000    -4.873000000
H     2.694000000    -3.470000000    -5.153000000
O     2.298000000     1.224000000     5.256000000
H     1.762000000     0.612000000     5.759000000
H     2.880000000     0.665000000     4.740000000
O    -4.238000000     2.897000000     1.173000000
H    -4.970000000     2.494000000     0.706000000
H    -3.912000000     3.568000000     0.573000000
O    -6.119000000    -1.572000000    -0.513000000
H    -6.965000000    -1.144000000    -0.640000000
H    -5.935000000    -1.468000000     0.421000000
O    -0.534000000    -0.384000000     4.455000000
H    -0.431000000     0.379000000     3.888000000
H    -0.980000000    -0.047000000     5.232000000
O    -1.437000000     4.762000000     4.667000000
H    -1.970000000     5.400000000     4.193000000
H    -0.795000000     5.292000000     5.141000000
O    -1.755000000    -5.427000000    -1.128000000
H    -2.075000000    -4.601000000    -0.766000000
H    -2.394000000    -5.655000000    -1.804000000
O     0.954000000     0.754000000    -7.464000000
H     0.653000000    -0.125000000    -7.692000000
H     1.900000000     0.728000000    -7.603000000
O    -3.234000000     5.019000000    -0.049000000
H    -2.319000000     5.175000000     0.186000000
H    -3.682000000     5.833000000     0.178000000
O     0.891000000     4.551000000    -5.479000000
H     1.725000000     4.160000000    -5.740000000
H     0.251000000     4.178000000    -6.085000000
O     0.357000000    -3.212000000     4.022000000
H     1.034000000    -2.907000000     4.625000000
H    -0.170000000    -2.434000000     3.839000000
O     3.924000000     1.022000000    -3.162000000
H     4.101000000     0.276000000    -3.735000000
H     2.984000000     0.972000000    -2.987000000
O     0.793000000    -5.777000000     3.604000000
H     0.571000000    -4.858000000     3.455000000
H     0.187000000    -6.263000000     3.045000000
O     5.531000000     1.146000000    -0.545000000
H     5.099000000     0.951000000    -1.377000000
H     6.060000000     0.369000000    -0.362000000
O     0.220000000     0.522000000    -4.705000000
H     0.548000000     0.613000000    -5.600000000
H     0.929000000     0.083000000    -4.234000000
O    -2.891000000     0.321000000    -1.505000000
H    -2.825000000     0.015000000    -0.600000000
H    -2.550000000     1.215000000    -1.481000000
O    -0.266000000     4.026000000    -3.111000000
H    -0.002000000     4.283000000    -3.995000000
H     0.366000000     4.459000000    -2.537000000
O     4.439000000    -0.413000000     2.427000000
H     4.164000000    -0.767000000     3.272000000
H     3.686000000     0.095000000     2.124000000
O     5.032000000     3.508000000    -3.963000000
H     5.922000000     3.313000000    -4.255000000
H     4.742000000     2.707000000    -3.527000000
O    -1.391000000    -2.905000000    -6.617000000
H    -0.809000000    -3.219000000    -5.924000000
H    -2.265000000    -2.940000000    -6.230000000
O    -4.967000000     1.861000000    -2.851000000
H    -4.224000000     1.326000000    -2.573000000
H    -4.608000000     2.744000000    -2.935000000
O    -3.667000000    -0.937000000     1.759000000
H    -3.035000000    -0.688000000     2.434000000
H    -4.377000000    -0.302000000     1.849000000
O    -0.291000000     2.408000000     3.807000000
H     0.640000000     2.561000000     3.641000000
H    -0.632000000     3.265000000     4.063000000
O    -2.143000000    -4.381000000     2.579000000
H    -2.527000000    -3.970000000     1.805000000
H    -1.375000000    -3.846000000     2.779000000
O    -2.564000000    -0.257000000    -4.925000000
H    -2.034000000    -0.715000000    -5.578000000
H    -1.990000000     0.432000000    -4.591000000
O     2.485000000     1.572000000     1.846000000
H     1.721000000     1.210000000     1.398000000
H     2.743000000     2.323000000     1.312000000
O    -2.709000000     3.171000000    -1.978000000
H    -1.856000000     3.502000000    -2.257000000
H    -2.993000000     3.782000000    -1.298000000
O    -5.323000000    -2.379000000     5.279000000
H    -4.545000000    -1.847000000     5.111000000
H    -5.635000000    -2.626000000     4.409000000
O    -6.195000000     1.506000000    -0.030000000
H    -5.943000000     1.519000000    -0.953000000
H    -7.005000000     2.014000000     0.005000000
O    -5.109000000     3.573000000     3.754000000
H    -4.655000000     3.336000000     2.946000000
H    -5.970000000     3.876000000     3.466000000
O    -0.261000000     5.678000000     0.756000000
H     0.450000000     5.594000000     1.392000000
H     0.179000000     5.887000000    -0.069000000
O     3.108000000     2.899000000    -6.059000000
H     3.687000000     2.974000000    -5.300000000
H     3.382000000     2.089000000    -6.490000000
O     2.445000000     3.638000000     6.315000000
H     3.224000000     4.142000000     6.081000000
H     2.473000000     2.872000000     5.741000000
O    -4.383000000     0.439000000     5.201000000
H    -4.596000000     0.369000000     4.271000000
H    -3.947000000     1.287000000     5.284000000
O     4.887000000    -1.059000000    -4.518000000
H     4.281000000    -1.404000000    -5.173000000
H     4.995000000    -1.774000000    -3.891000000
O     4.362000000    -2.913000000    -2.526000000
H     4.630000000    -2.868000000    -1.608000000
H     3.405000000    -2.884000000    -2.497000000
O     6.277000000    -4.623000000    -3.388000000
H     5.989000000    -5.091000000    -4.171000000
H     5.513000000    -4.112000000    -3.119000000
O    -1.651000000     2.600000000    -4.913000000
H    -0.762000000     2.295000000    -4.729000000
H    -1.917000000     3.057000000    -4.115000000
O    -0.030000000    -3.628000000    -3.971000000
H    -0.786000000    -3.263000000    -3.511000000
H     0.719000000    -3.395000000    -3.422000000
O    -3.201000000     2.924000000     5.759000000
H    -2.474000000     3.518000000     5.573000000
H    -3.895000000     3.200000000     5.160000000
O    -1.985000000    -2.693000000    -2.505000000
H    -1.593000000    -2.120000000    -1.846000000
H    -2.840000000    -2.303000000    -2.683000000
O     1.834000000    -7.906000000    -1.227000000
H     1.377000000    -7.070000000    -1.316000000
H     1.678000000    -8.354000000    -2.058000000
O    -5.811000000     0.173000000     2.721000000
H    -6.329000000    -0.622000000     2.847000000
H    -6.309000000     0.685000000     2.084000000
O     5.376000000    -2.027000000     0.201000000
H     5.703000000    -2.789000000     0.679000000
H     5.261000000    -1.354000000     0.873000000
O    -3.302000000    -3.184000000     0.347000000
H    -3.254000000    -2.269000000     0.621000000
H    -4.163000000    -3.478000000     0.646000000
O    -2.060000000     0.626000000     7.044000000
H    -2.075000000     1.547000000     6.783000000
H    -2.942000000     0.457000000     7.375000000
O     0.954000000    -5.049000000    -1.310000000
H     1.136000000    -4.130000000    -1.507000000
H     0.011000000    -5.141000000    -1.449000000
O     0.343000000    -6.020000000    -5.378000000
H     0.087000000    -5.273000000    -4.837000000
H    -0.221000000    -5.961000000    -6.149000000
