158
-3034.07852
C    -0.241000000     0.310000000    -1.454000000
H    -0.746000000     0.466000000    -2.403000000
C    -0.725000000     1.012000000    -0.361000000
H    -1.474000000     1.794000000    -0.449000000
C    -0.381000000     0.648000000     0.942000000
H    -0.730000000     1.333000000     1.746000000
C     0.508000000    -0.402000000     1.131000000
H     0.899000000    -0.584000000     2.129000000
C     0.979000000    -1.107000000    -0.001000000
H     1.776000000    -1.831000000     0.143000000
C     0.557000000    -0.804000000    -1.282000000
C     0.916000000    -1.618000000    -2.429000000
O     0.575000000    -1.336000000    -3.535000000
O     1.550000000    -2.644000000    -2.188000000
O     1.128000000    -3.953000000    -4.685000000
H     1.661000000    -4.458000000    -4.071000000
H     0.976000000    -3.118000000    -4.241000000
O    -4.001000000    -2.150000000    -2.347000000
H    -3.695000000    -1.930000000    -1.468000000
H    -4.951000000    -2.228000000    -2.258000000
O    -5.123000000     4.548000000    -0.069000000
H    -4.523000000     3.910000000     0.318000000
H    -4.628000000     4.936000000    -0.791000000
O    -3.368000000    -1.478000000     3.484000000
H    -3.491000000    -0.536000000     3.366000000
H    -2.884000000    -1.555000000     4.307000000
O    -2.995000000     1.352000000     3.995000000
H    -2.236000000     1.837000000     4.320000000
H    -3.434000000     1.964000000     3.404000000
O    -0.726000000     6.338000000     3.847000000
H    -0.674000000     7.293000000     3.897000000
H    -0.211000000     6.111000000     3.073000000
O    -0.617000000     0.972000000    -7.230000000
H    -1.510000000     0.677000000    -7.406000000
H    -0.695000000     1.920000000    -7.122000000
O    -1.002000000    -4.493000000     0.725000000
H    -1.692000000    -3.831000000     0.771000000
H    -1.472000000    -5.322000000     0.632000000
O    -0.253000000    -3.276000000     6.382000000
H     0.151000000    -3.012000000     7.209000000
H    -0.309000000    -2.466000000     5.875000000
O     1.242000000     1.519000000    -4.779000000
H     0.700000000     1.545000000    -5.568000000
H     1.219000000     0.602000000    -4.503000000
O     2.741000000     2.565000000    -2.679000000
H     3.294000000     3.189000000    -3.149000000
H     2.097000000     2.279000000    -3.327000000
O    -1.670000000    -1.558000000    -4.940000000
H    -2.094000000    -2.095000000    -4.272000000
H    -0.914000000    -1.175000000    -4.496000000
O    -3.590000000    -0.533000000    -6.787000000
H    -2.970000000    -0.719000000    -6.082000000
H    -3.714000000    -1.375000000    -7.225000000
O    -2.537000000     4.556000000     4.840000000
H    -2.104000000     3.765000000     5.163000000
H    -1.818000000     5.143000000     4.605000000
O    -1.496000000     4.170000000    -2.115000000
H    -2.121000000     3.457000000    -2.248000000
H    -0.962000000     4.171000000    -2.909000000
O     2.007000000     0.889000000     6.025000000
H     2.214000000     1.579000000     5.394000000
H     2.415000000     1.181000000     6.840000000
O    -3.176000000     2.140000000    -3.136000000
H    -3.554000000     1.310000000    -2.846000000
H    -3.397000000     2.192000000    -4.066000000
O     3.040000000    -3.233000000     3.771000000
H     3.757000000    -3.862000000     3.854000000
H     2.291000000    -3.760000000     3.492000000
O    -2.061000000     4.410000000     0.878000000
H    -1.340000000     4.737000000     1.415000000
H    -1.719000000     4.425000000    -0.016000000
O    -2.341000000    -1.623000000     0.108000000
H    -1.498000000    -1.236000000    -0.126000000
H    -2.281000000    -1.776000000     1.051000000
O    -0.838000000     2.374000000     5.035000000
H    -0.462000000     1.695000000     5.594000000
H    -0.249000000     3.122000000     5.137000000
O     0.744000000     5.358000000     1.771000000
H     1.013000000     4.464000000     1.558000000
H     1.548000000     5.873000000     1.704000000
O    -0.619000000    -4.426000000    -2.182000000
H    -0.375000000    -4.840000000    -1.354000000
H     0.111000000    -3.840000000    -2.381000000
O    -3.058000000    -4.361000000    -3.655000000
H    -2.311000000    -4.588000000    -3.100000000
H    -3.419000000    -3.568000000    -3.257000000
O    -4.039000000     3.444000000     2.517000000
H    -3.857000000     4.032000000     3.250000000
H    -3.297000000     3.565000000     1.924000000
O     4.196000000    -0.502000000     3.710000000
H     5.088000000    -0.795000000     3.895000000
H     3.650000000    -1.267000000     3.892000000
O    -3.302000000     6.126000000    -1.866000000
H    -2.873000000     6.979000000    -1.793000000
H    -2.625000000     5.547000000    -2.215000000
O     0.742000000     4.534000000     5.520000000
H     0.488000000     5.221000000     4.905000000
H     1.421000000     4.040000000     5.060000000
O     1.774000000    -1.124000000    -7.613000000
H     2.607000000    -0.777000000    -7.295000000
H     1.112000000    -0.553000000    -7.223000000
O     4.984000000    -3.656000000    -5.568000000
H     4.980000000    -4.612000000    -5.623000000
H     4.058000000    -3.412000000    -5.570000000
O     5.600000000    -1.985000000    -2.776000000
H     4.743000000    -1.776000000    -3.146000000
H     5.836000000    -2.822000000    -3.176000000
O     4.100000000    -0.096000000     1.013000000
H     4.033000000     0.083000000     1.951000000
H     3.244000000     0.148000000     0.661000000
O    -0.723000000     0.676000000     7.216000000
H    -0.297000000     0.033000000     6.648000000
H    -1.433000000     0.191000000     7.635000000
O     3.514000000     3.682000000     1.859000000
H     4.434000000     3.420000000     1.823000000
H     3.202000000     3.584000000     0.960000000
O     2.844000000     3.124000000     4.480000000
H     3.302000000     3.597000000     5.175000000
H     3.068000000     3.599000000     3.679000000
O     0.599000000    -1.127000000     5.022000000
H     1.170000000    -0.445000000     5.376000000
H     0.940000000    -1.292000000     4.143000000
O     1.380000000    -4.118000000     1.711000000
H     1.237000000    -4.728000000     2.434000000
H     0.571000000    -4.156000000     1.202000000
O     5.612000000    -2.441000000     1.065000000
H     5.170000000    -1.593000000     1.032000000
H     5.006000000    -3.045000000     0.635000000
O     3.167000000    -0.869000000    -4.127000000
H     3.131000000    -0.464000000    -4.994000000
H     2.278000000    -1.190000000    -3.975000000
O     2.852000000    -4.858000000    -2.747000000
H     3.659000000    -4.945000000    -2.238000000
H     2.512000000    -3.995000000    -2.510000000
O     0.761000000    -4.766000000     4.338000000
H     0.444000000    -4.039000000     4.873000000
H    -0.032000000    -5.222000000     4.058000000
O     0.275000000    -3.217000000    -7.310000000
H     0.406000000    -3.491000000    -6.402000000
H     0.819000000    -2.435000000    -7.406000000
O    -7.027000000     2.914000000     2.881000000
H    -6.857000000     2.760000000     3.811000000
H    -6.178000000     2.787000000     2.458000000
O     1.424000000    -6.995000000    -3.138000000
H     0.759000000    -6.739000000    -2.498000000
H     2.014000000    -6.242000000    -3.184000000
O     4.030000000    -4.717000000     0.102000000
H     3.196000000    -4.367000000     0.414000000
H     4.258000000    -5.396000000     0.736000000
O    -5.723000000     1.765000000     5.050000000
H    -4.798000000     2.002000000     4.986000000
H    -5.750000000     0.839000000     4.809000000
O     0.459000000     4.371000000    -4.143000000
H     0.850000000     3.533000000    -4.390000000
H     0.321000000     4.825000000    -4.974000000
O     1.730000000     2.788000000    -0.054000000
H     1.243000000     1.998000000     0.182000000
H     1.925000000     2.679000000    -0.985000000
