158
-3063.94597
C    -0.989000000     0.339000000    -1.057000000
H    -1.862000000     0.542000000    -1.671000000
C    -1.080000000     0.689000000     0.263000000
H    -1.965000000     1.246000000     0.558000000
C    -0.131000000     0.322000000     1.173000000
H    -0.187000000     0.640000000     2.219000000
C     0.999000000    -0.445000000     0.741000000
H     1.777000000    -0.730000000     1.444000000
C     1.062000000    -0.895000000    -0.549000000
H     1.999000000    -1.302000000    -0.920000000
C     0.205000000    -0.376000000    -1.467000000
C     0.307000000    -0.781000000    -2.918000000
O    -0.394000000    -0.184000000    -3.682000000
O     1.105000000    -1.688000000    -3.258000000
O     2.468000000    -1.434000000    -6.651000000
H     2.204000000    -0.539000000    -6.439000000
H     3.422000000    -1.427000000    -6.574000000
O     0.695000000    -3.005000000    -5.520000000
H     0.964000000    -2.696000000    -4.655000000
H     1.196000000    -2.467000000    -6.133000000
O    -2.578000000    -2.967000000    -3.628000000
H    -2.829000000    -2.742000000    -2.732000000
H    -2.309000000    -2.136000000    -4.017000000
O     4.670000000     0.799000000    -4.389000000
H     4.300000000     0.052000000    -3.919000000
H     5.594000000     0.577000000    -4.503000000
O    -3.540000000    -1.699000000     2.098000000
H    -3.758000000    -0.942000000     2.643000000
H    -2.798000000    -2.108000000     2.544000000
O    -3.164000000     0.976000000     3.284000000
H    -2.706000000     1.173000000     4.102000000
H    -3.348000000     1.833000000     2.901000000
O    -1.958000000     5.006000000     3.514000000
H    -2.785000000     5.334000000     3.867000000
H    -2.194000000     4.621000000     2.670000000
O    -1.751000000     0.583000000    -8.112000000
H    -1.466000000     0.040000000    -7.377000000
H    -1.786000000     1.471000000    -7.754000000
O    -0.327000000    -4.732000000    -0.508000000
H    -1.038000000    -4.251000000    -0.931000000
H    -0.753000000    -5.496000000    -0.120000000
O     0.971000000    -2.393000000     6.455000000
H     1.780000000    -2.128000000     6.891000000
H     0.916000000    -1.824000000     5.686000000
O     0.727000000     3.425000000    -2.428000000
H     1.313000000     3.068000000    -3.095000000
H     0.660000000     4.356000000    -2.641000000
O    -1.680000000    -0.977000000    -5.951000000
H    -1.570000000    -1.836000000    -6.359000000
H    -1.006000000    -0.946000000    -5.272000000
O    -4.420000000    -0.766000000    -5.811000000
H    -3.571000000    -0.515000000    -6.175000000
H    -4.875000000    -1.194000000    -6.536000000
O    -4.820000000     4.096000000     4.318000000
H    -4.170000000     3.547000000     4.757000000
H    -4.766000000     4.938000000     4.770000000
O    -3.721000000     3.068000000    -2.579000000
H    -4.397000000     2.417000000    -2.763000000
H    -2.936000000     2.726000000    -3.007000000
O     1.678000000     1.680000000     6.666000000
H     2.022000000     2.352000000     6.078000000
H     1.555000000     2.131000000     7.501000000
O    -5.352000000     0.445000000    -1.527000000
H    -6.217000000     0.191000000    -1.207000000
H    -5.252000000    -0.029000000    -2.353000000
O     3.293000000    -3.043000000     2.903000000
H     3.026000000    -3.404000000     2.057000000
H     3.171000000    -3.765000000     3.520000000
O    -3.486000000     5.030000000    -0.720000000
H    -2.540000000     4.898000000    -0.670000000
H    -3.814000000     4.250000000    -1.167000000
O    -2.621000000    -1.942000000    -0.867000000
H    -1.888000000    -1.397000000    -0.584000000
H    -3.350000000    -1.673000000    -0.308000000
O    -2.887000000     2.507000000     5.790000000
H    -2.400000000     2.889000000     6.520000000
H    -2.631000000     1.585000000     5.787000000
O    -0.860000000     4.899000000    -0.031000000
H    -0.154000000     4.263000000     0.091000000
H    -0.437000000     5.750000000     0.082000000
O     2.027000000    -4.162000000    -2.426000000
H     1.633000000    -4.451000000    -1.603000000
H     1.565000000    -3.352000000    -2.641000000
O    -0.873000000    -5.311000000    -4.345000000
H    -0.319000000    -4.944000000    -5.035000000
H    -1.359000000    -4.560000000    -4.003000000
O    -4.017000000     3.306000000     1.839000000
H    -4.651000000     3.798000000     2.360000000
H    -4.355000000     3.353000000     0.944000000
O     3.709000000     0.001000000     3.202000000
H     4.283000000     0.377000000     3.869000000
H     3.716000000    -0.939000000     3.383000000
O    -2.579000000    -2.554000000     5.201000000
H    -1.985000000    -2.518000000     4.451000000
H    -2.679000000    -3.488000000     5.383000000
O     2.765000000     2.850000000    -4.299000000
H     2.828000000     3.447000000    -5.045000000
H     3.575000000     2.342000000    -4.330000000
O    -0.167000000     4.905000000     5.909000000
H    -0.782000000     4.952000000     5.177000000
H     0.598000000     4.456000000     5.551000000
O     4.927000000    -2.853000000    -5.521000000
H     5.273000000    -3.535000000    -4.946000000
H     4.683000000    -2.141000000    -4.928000000
O     6.908000000    -1.347000000     1.387000000
H     6.661000000    -2.269000000     1.320000000
H     6.148000000    -0.870000000     1.054000000
O     4.648000000    -0.038000000     0.562000000
H     4.152000000     0.275000000     1.318000000
H     4.999000000     0.757000000     0.160000000
O    -1.724000000    -0.086000000     5.681000000
H    -1.094000000    -0.112000000     4.960000000
H    -2.124000000    -0.956000000     5.681000000
O     2.401000000     4.999000000     2.002000000
H     2.285000000     4.259000000     1.406000000
H     1.737000000     5.633000000     1.728000000
O     2.091000000     3.816000000     4.602000000
H     2.976000000     4.147000000     4.754000000
H     1.872000000     4.114000000     3.719000000
O     1.262000000    -0.174000000     4.594000000
H     1.344000000     0.590000000     5.165000000
H     2.065000000    -0.172000000     4.074000000
O     2.614000000    -4.152000000     0.521000000
H     2.980000000    -5.036000000     0.499000000
H     1.680000000    -4.275000000     0.351000000
O     4.491000000    -2.526000000    -0.902000000
H     4.683000000    -1.704000000    -0.450000000
H     3.792000000    -2.926000000    -0.385000000
O     1.345000000     0.904000000    -5.847000000
H     0.802000000     0.498000000    -5.172000000
H     1.782000000     1.628000000    -5.400000000
O     3.795000000    -1.635000000    -3.371000000
H     2.840000000    -1.668000000    -3.426000000
H     3.995000000    -1.929000000    -2.483000000
O     5.569000000     3.233000000     2.455000000
H     6.301000000     2.901000000     2.975000000
H     4.869000000     2.595000000     2.591000000
O    -1.310000000     2.935000000    -6.588000000
H    -1.281000000     2.875000000    -5.633000000
H    -0.649000000     3.592000000    -6.807000000
O     2.280000000    -6.431000000    -4.455000000
H     2.003000000    -5.820000000    -3.773000000
H     3.236000000    -6.414000000    -4.419000000
O     4.724000000    -4.970000000    -2.812000000
H     5.230000000    -4.413000000    -2.221000000
H     3.825000000    -4.653000000    -2.730000000
O    -5.792000000    -0.011000000     4.006000000
H    -4.920000000     0.364000000     3.877000000
H    -6.328000000     0.726000000     4.299000000
O    -0.945000000    -2.701000000     3.275000000
H    -0.524000000    -2.095000000     2.666000000
H    -0.430000000    -3.505000000     3.207000000
O    -1.516000000     2.452000000    -3.876000000
H    -0.990000000     2.845000000    -3.180000000
H    -1.068000000     1.631000000    -4.080000000
O     1.269000000     3.066000000     0.288000000
H     0.787000000     2.240000000     0.257000000
H     1.684000000     3.134000000    -0.572000000
