158
-3035.27834
C    -0.979000000    -0.352000000    -0.970000000
H    -1.848000000    -0.752000000    -1.485000000
C    -1.084000000    -0.394000000     0.411000000
H    -2.029000000    -0.656000000     0.881000000
C    -0.080000000    -0.070000000     1.236000000
H    -0.196000000    -0.202000000     2.322000000
C     1.112000000     0.448000000     0.650000000
H     1.927000000     0.819000000     1.266000000
C     1.188000000     0.593000000    -0.753000000
H     2.047000000     1.082000000    -1.203000000
C     0.174000000     0.047000000    -1.573000000
C     0.213000000     0.052000000    -3.119000000
O    -0.687000000    -0.486000000    -3.808000000
O     1.158000000     0.589000000    -3.652000000
O     1.382000000    -3.857000000    -5.151000000
H     2.130000000    -4.232000000    -5.615000000
H     1.086000000    -4.557000000    -4.569000000
O    -1.684000000    -2.868000000    -3.571000000
H    -1.552000000    -3.278000000    -2.717000000
H    -1.400000000    -1.962000000    -3.448000000
O    -0.882000000    -4.488000000     4.644000000
H    -0.415000000    -5.036000000     4.013000000
H    -0.519000000    -3.612000000     4.517000000
O     5.193000000     0.264000000    -4.466000000
H     5.732000000    -0.502000000    -4.662000000
H     5.822000000     0.946000000    -4.231000000
O    -1.992000000    -3.810000000    -6.827000000
H    -1.106000000    -3.451000000    -6.867000000
H    -1.959000000    -4.450000000    -6.117000000
O     3.292000000     3.757000000    -1.797000000
H     2.552000000     4.353000000    -1.686000000
H     3.183000000     3.401000000    -2.679000000
O     3.140000000     2.369000000    -4.186000000
H     2.381000000     1.929000000    -3.803000000
H     3.833000000     1.708000000    -4.170000000
O    -3.895000000    -3.311000000     0.678000000
H    -4.104000000    -2.387000000     0.537000000
H    -3.683000000    -3.369000000     1.609000000
O    -0.923000000     1.038000000     6.684000000
H    -1.502000000     0.927000000     7.437000000
H    -1.061000000     0.251000000     6.157000000
O    -3.662000000     1.426000000     0.956000000
H    -4.125000000     2.260000000     0.879000000
H    -4.076000000     0.989000000     1.700000000
O    -2.299000000     2.913000000    -5.433000000
H    -2.722000000     2.755000000    -4.589000000
H    -1.363000000     2.820000000    -5.254000000
O    -4.167000000    -2.225000000    -4.193000000
H    -3.982000000    -1.288000000    -4.262000000
H    -3.305000000    -2.640000000    -4.194000000
O    -1.316000000    -1.710000000     5.728000000
H    -1.874000000    -2.332000000     6.195000000
H    -0.427000000    -2.042000000     5.857000000
O     0.386000000     4.957000000    -2.681000000
H     0.294000000     4.760000000    -1.748000000
H    -0.488000000     5.240000000    -2.953000000
O    -0.097000000    -1.812000000    -6.160000000
H    -0.614000000    -1.392000000    -5.472000000
H     0.275000000    -2.588000000    -5.740000000
O    -0.303000000     1.219000000    -7.640000000
H    -0.380000000     1.737000000    -6.839000000
H     0.491000000     0.699000000    -7.513000000
O    -4.883000000    -3.634000000     3.451000000
H    -4.805000000    -2.835000000     3.972000000
H    -5.787000000    -3.919000000     3.583000000
O    -5.358000000     0.659000000     2.974000000
H    -5.089000000     0.179000000     3.757000000
H    -6.285000000     0.852000000     3.119000000
O    -3.301000000     0.335000000    -3.950000000
H    -2.416000000     0.002000000    -4.095000000
H    -3.172000000     1.230000000    -3.638000000
O     1.532000000     4.247000000     3.829000000
H     0.950000000     3.488000000     3.858000000
H     1.043000000     4.906000000     3.338000000
O     4.579000000     1.734000000     5.907000000
H     3.821000000     1.152000000     5.845000000
H     4.981000000     1.698000000     5.039000000
O    -4.623000000    -0.807000000    -0.576000000
H    -4.750000000    -0.370000000    -1.419000000
H    -4.366000000    -0.104000000     0.021000000
O     1.457000000     0.131000000     4.168000000
H     1.665000000    -0.690000000     3.722000000
H     1.707000000    -0.022000000     5.080000000
O     2.602000000    -0.427000000     6.389000000
H     3.134000000    -0.507000000     7.181000000
H     2.110000000    -1.247000000     6.346000000
O    -3.028000000     2.668000000    -2.387000000
H    -3.252000000     3.591000000    -2.272000000
H    -2.410000000     2.481000000    -1.681000000
O    -1.799000000    -4.273000000    -1.222000000
H    -1.356000000    -5.112000000    -1.098000000
H    -2.172000000    -4.070000000    -0.364000000
O     2.038000000    -3.383000000    -2.051000000
H     1.252000000    -3.507000000    -2.583000000
H     2.555000000    -2.739000000    -2.536000000
O     4.323000000     2.288000000     0.455000000
H     4.001000000     2.918000000    -0.189000000
H     4.385000000     1.463000000    -0.026000000
O     5.393000000     0.598000000    -1.413000000
H     5.440000000     0.782000000    -2.352000000
H     6.170000000     0.068000000    -1.235000000
O     0.510000000    -2.950000000     2.637000000
H     0.839000000    -3.573000000     1.989000000
H     0.044000000    -2.292000000     2.122000000
O     3.251000000     1.760000000    -7.359000000
H     2.950000000     0.855000000    -7.444000000
H     2.968000000     2.025000000    -6.484000000
O     0.899000000     4.660000000     0.087000000
H     1.653000000     4.387000000     0.610000000
H     0.195000000     4.071000000     0.358000000
O    -0.285000000     2.206000000     4.206000000
H    -0.471000000     1.874000000     5.085000000
H     0.266000000     1.532000000     3.807000000
O     1.887000000    -4.262000000     0.573000000
H     1.948000000    -3.796000000    -0.261000000
H     2.698000000    -4.768000000     0.624000000
O     4.846000000    -2.697000000    -1.147000000
H     4.551000000    -2.277000000    -1.955000000
H     4.860000000    -1.990000000    -0.501000000
O     1.905000000    -0.207000000    -6.145000000
H     1.921000000    -0.114000000    -5.192000000
H     1.250000000    -0.886000000    -6.309000000
O     3.267000000    -1.212000000    -3.223000000
H     2.408000000    -0.790000000    -3.210000000
H     3.797000000    -0.660000000    -3.797000000
O    -2.992000000    -0.957000000    -6.968000000
H    -2.763000000    -1.885000000    -6.921000000
H    -2.157000000    -0.510000000    -7.101000000
O    -2.172000000     4.011000000     3.419000000
H    -1.444000000     3.389000000     3.412000000
H    -2.121000000     4.429000000     4.279000000
O     5.361000000     1.624000000     3.153000000
H     5.093000000     1.691000000     2.236000000
H     6.272000000     1.333000000     3.115000000
O    -4.834000000    -4.155000000    -1.866000000
H    -4.259000000    -3.899000000    -1.145000000
H    -4.420000000    -3.785000000    -2.646000000
O     3.289000000     4.340000000     2.049000000
H     3.829000000     3.585000000     1.814000000
H     2.822000000     4.065000000     2.838000000
O    -2.897000000    -1.153000000     3.366000000
H    -3.212000000    -0.252000000     3.442000000
H    -2.063000000    -1.156000000     3.835000000
O     3.826000000    -2.713000000     3.550000000
H     3.259000000    -3.465000000     3.721000000
H     3.241000000    -2.050000000     3.184000000
O    -3.202000000    -5.586000000     4.002000000
H    -2.321000000    -5.213000000     4.017000000
H    -3.759000000    -4.873000000     3.689000000
O     1.127000000    -2.824000000     6.010000000
H     1.636000000    -3.528000000     5.606000000
H     0.919000000    -3.151000000     6.885000000
O     0.372000000     2.518000000    -5.306000000
H     1.121000000     3.043000000    -5.023000000
H     0.483000000     1.680000000    -4.858000000
O    -1.249000000     3.080000000     1.012000000
H    -1.541000000     2.170000000     1.045000000
H    -1.837000000     3.543000000     1.609000000
