158
-3008.26827
C    -0.621000000     0.547000000    -1.226000000
H    -1.262000000     0.974000000    -1.993000000
C    -0.649000000     1.194000000     0.020000000
H    -1.157000000     2.114000000     0.298000000
C    -0.027000000     0.514000000     1.056000000
H    -0.079000000     1.008000000     1.999000000
C     0.703000000    -0.644000000     0.862000000
H     1.147000000    -1.113000000     1.736000000
C     0.732000000    -1.238000000    -0.379000000
H     1.351000000    -2.121000000    -0.521000000
C     0.037000000    -0.669000000    -1.441000000
C    -0.087000000    -1.360000000    -2.731000000
O    -0.427000000    -0.714000000    -3.678000000
O     0.401000000    -2.439000000    -2.893000000
O     3.785000000     2.530000000     6.077000000
H     3.995000000     2.528000000     7.011000000
H     3.090000000     3.182000000     5.990000000
O    -0.580000000    -2.708000000    -5.592000000
H     0.195000000    -2.440000000    -6.086000000
H    -0.450000000    -2.332000000    -4.721000000
O    -4.414000000    -1.128000000    -1.222000000
H    -3.611000000    -1.437000000    -0.802000000
H    -5.091000000    -1.734000000    -0.920000000
O    -5.285000000     3.326000000    -1.676000000
H    -4.572000000     3.250000000    -2.309000000
H    -5.342000000     4.264000000    -1.491000000
O     5.340000000    -1.810000000     4.447000000
H     5.321000000    -1.439000000     3.564000000
H     6.270000000    -1.848000000     4.670000000
O    -2.570000000    -0.161000000     2.437000000
H    -1.937000000     0.397000000     1.984000000
H    -3.331000000     0.403000000     2.573000000
O    -4.483000000     3.836000000     3.142000000
H    -3.592000000     3.609000000     3.407000000
H    -4.494000000     4.793000000     3.130000000
O     5.464000000    -1.198000000     1.840000000
H     6.411000000    -1.333000000     1.838000000
H     5.298000000    -0.650000000     1.073000000
O     2.720000000    -0.241000000     7.706000000
H     2.948000000     0.636000000     8.015000000
H     2.410000000    -0.106000000     6.810000000
O    -2.431000000    -5.249000000     0.477000000
H    -2.262000000    -4.314000000     0.361000000
H    -3.091000000    -5.290000000     1.169000000
O    -0.874000000    -1.122000000     4.232000000
H    -1.460000000    -0.611000000     3.674000000
H    -0.522000000    -0.486000000     4.855000000
O    -0.459000000     1.840000000    -5.683000000
H     0.386000000     1.494000000    -5.971000000
H    -0.894000000     1.095000000    -5.267000000
O     2.134000000     3.698000000    -3.175000000
H     1.224000000     3.746000000    -3.469000000
H     2.430000000     4.608000000    -3.161000000
O    -2.953000000    -0.945000000    -5.596000000
H    -2.089000000    -1.337000000    -5.721000000
H    -3.350000000    -1.461000000    -4.893000000
O    -4.056000000     0.720000000    -3.248000000
H    -4.525000000     0.393000000    -2.481000000
H    -3.245000000     0.211000000    -3.268000000
O    -1.916000000     3.854000000    -2.095000000
H    -2.607000000     3.996000000    -2.742000000
H    -1.105000000     4.055000000    -2.562000000
O     1.049000000     2.982000000     3.130000000
H     1.832000000     2.519000000     2.832000000
H     1.305000000     3.904000000     3.140000000
O     1.702000000    -5.960000000     3.347000000
H     1.295000000    -6.723000000     3.757000000
H     1.081000000    -5.247000000     3.497000000
O    -3.888000000     3.123000000    -4.291000000
H    -4.327000000     3.024000000    -5.136000000
H    -3.928000000     2.251000000    -3.897000000
O     3.274000000     0.220000000     4.679000000
H     3.605000000     1.118000000     4.713000000
H     4.004000000    -0.316000000     4.989000000
O    -2.159000000     5.622000000     0.028000000
H    -1.419000000     5.537000000     0.630000000
H    -2.141000000     4.816000000    -0.489000000
O    -2.207000000    -1.978000000     0.081000000
H    -1.346000000    -1.576000000    -0.037000000
H    -2.459000000    -1.747000000     0.975000000
O    -1.694000000     2.232000000     4.078000000
H    -1.677000000     2.594000000     4.964000000
H    -0.808000000     2.374000000     3.745000000
O     0.556000000     4.882000000     0.601000000
H     0.928000000     4.001000000     0.630000000
H     1.083000000     5.385000000     1.222000000
O    -1.612000000    -4.219000000    -2.261000000
H    -1.520000000    -3.718000000    -1.451000000
H    -0.931000000    -3.872000000    -2.837000000
O    -4.192000000    -2.595000000    -3.611000000
H    -4.239000000    -2.136000000    -2.772000000
H    -5.104000000    -2.684000000    -3.886000000
O     3.939000000     2.970000000     2.311000000
H     4.727000000     2.771000000     2.816000000
H     3.765000000     3.894000000     2.493000000
O     4.045000000    -3.715000000     2.269000000
H     4.289000000    -2.812000000     2.067000000
H     3.795000000    -3.695000000     3.193000000
O    -3.935000000     0.561000000     5.386000000
H    -4.474000000     0.372000000     4.618000000
H    -3.431000000    -0.241000000     5.528000000
O     1.282000000    -0.609000000    -6.842000000
H     1.843000000     0.167000000    -6.840000000
H     0.670000000    -0.459000000    -7.562000000
O     4.724000000    -5.479000000    -3.490000000
H     4.745000000    -5.724000000    -4.415000000
H     3.932000000    -4.949000000    -3.401000000
O     5.245000000    -0.882000000    -3.794000000
H     4.364000000    -1.030000000    -4.137000000
H     5.246000000    -1.313000000    -2.940000000
O     4.126000000     0.499000000     0.260000000
H     3.297000000     0.693000000     0.697000000
H     4.569000000     1.345000000     0.202000000
O    -2.215000000     2.106000000     7.120000000
H    -2.070000000     1.236000000     7.493000000
H    -2.917000000     1.979000000     6.483000000
O     3.819000000     5.048000000    -0.611000000
H     3.290000000     4.312000000    -0.306000000
H     3.223000000     5.797000000    -0.590000000
O    -5.380000000     0.531000000     2.768000000
H    -5.252000000     1.081000000     1.995000000
H    -6.330000000     0.428000000     2.834000000
O     0.818000000     0.908000000     5.486000000
H     0.805000000     1.862000000     5.566000000
H     1.683000000     0.710000000     5.128000000
O     0.339000000    -5.781000000     0.108000000
H    -0.574000000    -5.523000000     0.235000000
H     0.349000000    -6.722000000     0.284000000
O     4.339000000    -2.311000000    -1.340000000
H     4.404000000    -1.539000000    -0.777000000
H     3.484000000    -2.688000000    -1.131000000
O     2.535000000    -1.404000000    -4.482000000
H     2.202000000    -1.269000000    -5.369000000
H     1.760000000    -1.622000000    -3.965000000
O     2.217000000    -4.309000000    -2.882000000
H     2.463000000    -4.410000000    -1.963000000
H     1.500000000    -3.675000000    -2.870000000
O    -0.280000000    -3.763000000     3.982000000
H    -0.601000000    -2.879000000     3.801000000
H     0.130000000    -3.698000000     4.844000000
O    -2.888000000    -4.196000000    -5.504000000
H    -3.062000000    -3.741000000    -4.680000000
H    -1.990000000    -3.951000000    -5.727000000
O    -5.216000000     2.196000000     0.847000000
H    -4.983000000     2.922000000     1.426000000
H    -5.148000000     2.562000000    -0.035000000
O     0.842000000    -6.733000000    -4.244000000
H     1.310000000    -6.012000000    -3.823000000
H     1.461000000    -7.078000000    -4.887000000
O     2.377000000    -4.251000000    -0.267000000
H     1.610000000    -4.728000000     0.051000000
H     2.893000000    -4.075000000     0.520000000
O    -0.158000000     4.206000000    -4.484000000
H    -0.181000000     3.396000000    -4.994000000
H    -0.982000000     4.645000000    -4.696000000
O     1.980000000     2.460000000    -0.127000000
H     1.940000000     2.302000000    -1.071000000
H     1.194000000     2.037000000     0.220000000
