158
-3040.63260
C    -0.690000000     0.173000000    -1.297000000
H    -1.240000000     0.505000000    -2.175000000
C    -1.050000000     0.854000000    -0.205000000
H    -1.833000000     1.606000000    -0.258000000
C    -0.389000000     0.568000000     0.990000000
H    -0.633000000     1.128000000     1.923000000
C     0.689000000    -0.336000000     1.000000000
H     1.210000000    -0.596000000     1.918000000
C     1.103000000    -1.022000000    -0.169000000
H     1.906000000    -1.754000000    -0.133000000
C     0.352000000    -0.749000000    -1.328000000
C     0.796000000    -1.468000000    -2.546000000
O     0.336000000    -1.091000000    -3.646000000
O     1.668000000    -2.318000000    -2.511000000
O     0.919000000    -3.071000000    -5.536000000
H     0.722000000    -2.531000000    -6.302000000
H     0.835000000    -2.473000000    -4.793000000
O    -3.467000000    -1.322000000    -2.522000000
H    -4.149000000    -0.903000000    -1.997000000
H    -2.943000000    -1.811000000    -1.888000000
O    -4.417000000     1.601000000     0.826000000
H    -4.108000000     1.431000000    -0.064000000
H    -4.580000000     2.544000000     0.846000000
O     4.632000000     0.323000000    -2.037000000
H     4.385000000     0.137000000    -1.132000000
H     4.450000000     1.256000000    -2.148000000
O    -1.183000000    -1.330000000     4.089000000
H    -0.402000000    -0.855000000     4.373000000
H    -1.708000000    -0.675000000     3.630000000
O    -1.751000000     2.757000000     3.834000000
H    -1.283000000     3.137000000     3.090000000
H    -1.111000000     2.763000000     4.547000000
O     0.259000000     6.046000000     3.063000000
H     0.200000000     6.785000000     2.459000000
H    -0.212000000     6.336000000     3.844000000
O     0.283000000    -1.044000000    -7.298000000
H     0.626000000    -1.328000000    -8.145000000
H    -0.647000000    -1.269000000    -7.329000000
O    -4.598000000     4.552000000    -0.013000000
H    -5.146000000     5.243000000    -0.386000000
H    -4.565000000     4.752000000     0.923000000
O     0.601000000    -3.451000000     3.250000000
H     0.058000000    -2.699000000     3.487000000
H     1.191000000    -3.564000000     3.995000000
O     1.113000000     1.525000000    -4.192000000
H     0.869000000     1.832000000    -5.066000000
H     0.722000000     0.653000000    -4.127000000
O     1.132000000    -6.592000000    -0.338000000
H     0.822000000    -5.848000000    -0.854000000
H     0.391000000    -6.819000000     0.224000000
O     2.971000000     2.518000000    -2.573000000
H     2.219000000     2.205000000    -3.076000000
H     3.067000000     3.435000000    -2.831000000
O    -2.020000000    -1.037000000    -4.856000000
H    -1.105000000    -0.887000000    -4.619000000
H    -2.459000000    -1.204000000    -4.022000000
O    -4.827000000     1.142000000    -2.180000000
H    -4.602000000     0.721000000    -3.010000000
H    -4.715000000     2.078000000    -2.349000000
O    -2.525000000    -2.301000000    -7.359000000
H    -2.746000000    -3.204000000    -7.128000000
H    -2.494000000    -1.841000000    -6.520000000
O     0.618000000     3.519000000     4.780000000
H     1.205000000     3.038000000     5.363000000
H     1.181000000     4.164000000     4.352000000
O    -0.205000000     3.701000000    -3.166000000
H    -1.054000000     4.049000000    -3.439000000
H    -0.046000000     2.965000000    -3.756000000
O     3.444000000     1.036000000     4.136000000
H     3.675000000     1.571000000     3.376000000
H     3.961000000     1.402000000     4.853000000
O    -2.648000000     3.258000000    -4.602000000
H    -2.180000000     2.751000000    -5.266000000
H    -2.531000000     4.169000000    -4.870000000
O    -0.216000000     3.863000000     1.249000000
H    -0.223000000     4.543000000     1.923000000
H     0.660000000     3.483000000     1.300000000
O    -1.069000000    -4.096000000     1.030000000
H    -0.314000000    -4.043000000     1.616000000
H    -1.821000000    -3.901000000     1.591000000
O     1.015000000    -0.083000000     4.927000000
H     1.242000000    -0.464000000     5.776000000
H     1.835000000     0.292000000     4.606000000
O     0.056000000    -4.297000000    -1.329000000
H    -0.408000000    -4.068000000    -0.524000000
H     0.434000000    -3.471000000    -1.631000000
O    -3.320000000     4.628000000     5.097000000
H    -2.949000000     4.028000000     4.450000000
H    -3.227000000     5.494000000     4.701000000
O     3.795000000     0.279000000     0.536000000
H     3.247000000    -0.162000000     1.185000000
H     3.335000000     1.098000000     0.351000000
O    -5.561000000    -0.834000000     1.332000000
H    -5.305000000     0.081000000     1.447000000
H    -6.289000000    -0.958000000     1.942000000
O    -5.914000000     2.699000000     3.988000000
H    -5.348000000     1.974000000     3.726000000
H    -6.798000000     2.333000000     3.964000000
O     5.221000000    -0.375000000    -5.838000000
H     5.949000000    -0.322000000    -5.220000000
H     4.471000000    -0.633000000    -5.303000000
O     2.561000000     5.645000000     4.100000000
H     3.242000000     6.131000000     3.635000000
H     1.755000000     5.845000000     3.623000000
O    -1.396000000     5.195000000    -0.720000000
H    -1.081000000     4.904000000     0.136000000
H    -1.402000000     4.402000000    -1.256000000
O     0.924000000     1.639000000    -6.975000000
H     1.876000000     1.560000000    -6.922000000
H     0.615000000     0.741000000    -7.097000000
O     6.422000000    -2.769000000    -3.626000000
H     6.045000000    -2.676000000    -2.751000000
H     5.664000000    -2.824000000    -4.208000000
O     0.650000000     1.353000000     7.679000000
H     0.552000000     1.438000000     6.730000000
H    -0.193000000     1.012000000     7.977000000
O     3.812000000     3.236000000     2.205000000
H     4.600000000     3.733000000     1.985000000
H     3.321000000     3.190000000     1.385000000
O    -4.288000000    -1.155000000     4.667000000
H    -4.127000000    -0.379000000     4.129000000
H    -5.233000000    -1.298000000     4.604000000
O     3.138000000    -3.045000000     4.461000000
H     3.600000000    -3.500000000     3.756000000
H     3.830000000    -2.606000000     4.956000000
O     3.450000000    -4.971000000     1.504000000
H     2.632000000    -5.255000000     1.912000000
H     3.184000000    -4.617000000     0.655000000
O     3.612000000    -1.306000000    -4.002000000
H     2.917000000    -1.530000000    -3.382000000
H     4.060000000    -0.563000000    -3.600000000
O     3.136000000    -4.048000000    -1.065000000
H     3.770000000    -3.395000000    -0.768000000
H     2.600000000    -3.586000000    -1.710000000
O    -2.540000000     1.157000000    -6.451000000
H    -3.410000000     1.068000000    -6.062000000
H    -2.042000000     0.421000000    -6.093000000
O    -0.723000000    -5.196000000    -5.813000000
H    -0.998000000    -5.238000000    -4.897000000
H    -0.005000000    -4.563000000    -5.819000000
O    -3.895000000     1.110000000     3.364000000
H    -3.143000000     1.663000000     3.574000000
H    -4.001000000     1.198000000     2.417000000
O     2.413000000    -7.131000000    -2.937000000
H     2.455000000    -6.351000000    -2.385000000
H     1.973000000    -6.837000000    -3.735000000
O    -3.239000000    -3.120000000     2.342000000
H    -3.267000000    -2.189000000     2.564000000
H    -3.886000000    -3.524000000     2.920000000
O     5.080000000    -2.434000000     0.081000000
H     5.289000000    -2.713000000     0.972000000
H     4.731000000    -1.548000000     0.183000000
O    -1.326000000    -5.698000000    -3.348000000
H    -2.178000000    -5.872000000    -2.948000000
H    -0.835000000    -5.232000000    -2.672000000
O     2.073000000     2.416000000     0.058000000
H     2.300000000     2.468000000    -0.871000000
H     1.159000000     2.133000000     0.066000000
