158
-3093.18721
C     1.095000000     0.358000000    -0.942000000
H     1.865000000     0.710000000    -1.624000000
C    -0.066000000     1.113000000    -0.671000000
H    -0.198000000     2.133000000    -1.023000000
C    -0.993000000     0.676000000     0.267000000
H    -1.754000000     1.369000000     0.592000000
C    -0.805000000    -0.533000000     0.973000000
H    -1.588000000    -0.791000000     1.681000000
C     0.350000000    -1.280000000     0.671000000
H     0.595000000    -2.193000000     1.207000000
C     1.243000000    -0.889000000    -0.326000000
C     2.319000000    -1.800000000    -0.760000000
O     3.206000000    -1.394000000    -1.521000000
O     2.256000000    -2.969000000    -0.585000000
O     5.688000000     1.513000000    -4.316000000
H     6.127000000     2.358000000    -4.213000000
H     6.049000000     1.154000000    -5.127000000
O     4.557000000    -3.461000000    -2.814000000
H     3.873000000    -3.193000000    -2.199000000
H     4.490000000    -4.416000000    -2.845000000
O    -5.666000000     0.008000000    -2.579000000
H    -5.908000000    -0.066000000    -1.655000000
H    -4.709000000     0.013000000    -2.576000000
O    -4.304000000     0.742000000     2.064000000
H    -4.447000000    -0.027000000     1.512000000
H    -4.601000000     1.478000000     1.530000000
O    -6.341000000    -0.203000000     0.448000000
H    -7.149000000    -0.707000000     0.543000000
H    -6.608000000     0.706000000     0.587000000
O     0.376000000    -2.449000000     4.987000000
H     0.860000000    -1.623000000     4.968000000
H    -0.530000000    -2.193000000     5.159000000
O    -3.407000000     3.771000000     4.573000000
H    -3.368000000     4.667000000     4.237000000
H    -2.579000000     3.377000000     4.298000000
O    -1.207000000    -4.344000000    -0.496000000
H    -1.638000000    -3.504000000    -0.654000000
H    -1.844000000    -4.998000000    -0.782000000
O    -4.413000000     3.712000000     1.209000000
H    -4.079000000     4.590000000     1.392000000
H    -5.356000000     3.833000000     1.099000000
O     0.475000000     4.295000000    -2.941000000
H     1.370000000     4.467000000    -3.233000000
H     0.073000000     3.820000000    -3.669000000
O    -2.960000000     6.082000000     0.443000000
H    -2.358000000     6.125000000     1.185000000
H    -2.498000000     5.557000000    -0.211000000
O     0.170000000    -4.879000000     3.832000000
H     0.857000000    -4.936000000     3.167000000
H     0.352000000    -4.061000000     4.294000000
O     4.835000000     0.991000000    -1.507000000
H     4.931000000     1.202000000    -2.436000000
H     4.573000000     0.070000000    -1.497000000
O     5.627000000     1.607000000     1.245000000
H     5.246000000     1.244000000     0.445000000
H     5.304000000     1.038000000     1.943000000
O     2.899000000    -0.164000000    -4.038000000
H     3.486000000    -0.573000000    -4.674000000
H     2.954000000    -0.727000000    -3.265000000
O    -2.969000000     0.182000000    -2.326000000
H    -2.381000000     0.109000000    -3.077000000
H    -2.616000000     0.910000000    -1.815000000
O    -0.947000000     4.479000000    -0.737000000
H    -0.381000000     4.511000000    -1.507000000
H    -0.396000000     4.105000000    -0.049000000
O     5.062000000    -1.645000000    -4.722000000
H     5.025000000    -2.226000000    -5.482000000
H     4.748000000    -2.182000000    -3.995000000
O    -3.393000000     2.844000000    -3.901000000
H    -3.441000000     2.917000000    -2.948000000
H    -4.260000000     2.530000000    -4.161000000
O    -1.071000000    -3.669000000    -4.936000000
H    -0.493000000    -3.813000000    -4.187000000
H    -1.948000000    -3.862000000    -4.603000000
O    -2.482000000    -4.086000000     3.073000000
H    -2.594000000    -3.506000000     3.826000000
H    -1.535000000    -4.194000000     2.992000000
O     1.333000000    -0.028000000     4.766000000
H     1.268000000     0.818000000     5.209000000
H     1.621000000     0.187000000     3.879000000
O    -0.263000000    -0.457000000    -4.108000000
H     0.555000000    -0.138000000    -3.725000000
H     0.016000000    -1.051000000    -4.805000000
O     2.044000000     0.975000000     2.348000000
H     1.409000000     0.759000000     1.665000000
H     2.461000000     1.780000000     2.041000000
O    -3.226000000     2.836000000    -1.009000000
H    -2.511000000     3.449000000    -1.178000000
H    -3.674000000     3.196000000    -0.243000000
O    -3.198000000     6.355000000     3.363000000
H    -4.100000000     6.237000000     3.063000000
H    -2.879000000     7.112000000     2.872000000
O     0.509000000     3.782000000     1.842000000
H     0.459000000     4.723000000     1.673000000
H     1.429000000     3.561000000     1.695000000
O     7.543000000    -1.310000000    -3.816000000
H     7.864000000    -2.017000000    -4.375000000
H     6.608000000    -1.252000000    -4.015000000
O    -0.775000000     2.557000000     3.828000000
H    -0.154000000     2.688000000     4.545000000
H    -0.306000000     2.854000000     3.048000000
O     2.563000000     2.685000000    -4.109000000
H     2.780000000     1.758000000    -4.004000000
H     3.385000000     3.144000000    -3.941000000
O     7.897000000    -1.256000000    -0.945000000
H     7.066000000    -1.494000000    -0.534000000
H     7.705000000    -1.243000000    -1.883000000
O    -4.474000000     1.396000000     5.854000000
H    -4.453000000     2.250000000     5.422000000
H    -3.783000000     0.892000000     5.423000000
O     5.495000000    -2.246000000     0.019000000
H     5.182000000    -2.181000000     0.921000000
H     4.731000000    -2.027000000    -0.515000000
O     3.205000000    -5.131000000     2.996000000
H     2.717000000    -5.801000000     3.475000000
H     2.887000000    -5.200000000     2.096000000
O     7.081000000    -4.512000000    -0.770000000
H     6.505000000    -5.190000000    -0.416000000
H     6.629000000    -3.690000000    -0.577000000
O     3.593000000    -5.626000000    -1.086000000
H     3.319000000    -4.725000000    -0.917000000
H     2.816000000    -6.048000000    -1.455000000
O    -0.791000000     2.188000000    -4.471000000
H    -0.652000000     1.254000000    -4.319000000
H    -1.719000000     2.327000000    -4.283000000
O     1.324000000     6.210000000     0.784000000
H     1.237000000     7.163000000     0.750000000
H     2.235000000     6.062000000     1.039000000
O     0.521000000    -4.001000000    -2.566000000
H    -0.264000000    -4.099000000    -2.027000000
H     1.190000000    -3.683000000    -1.960000000
O    -2.613000000     0.178000000     4.187000000
H    -2.095000000     0.978000000     4.098000000
H    -3.126000000     0.134000000     3.380000000
O    -3.036000000    -2.575000000    -1.363000000
H    -3.559000000    -2.521000000    -0.563000000
H    -3.105000000    -1.703000000    -1.753000000
O     1.150000000    -6.947000000    -0.670000000
H     0.952000000    -6.200000000    -0.105000000
H     1.257000000    -7.682000000    -0.067000000
O     3.752000000    -2.658000000     2.359000000
H     3.649000000    -3.586000000     2.568000000
H     2.859000000    -2.312000000     2.361000000
O    -3.998000000    -2.631000000     1.144000000
H    -3.426000000    -3.114000000     1.740000000
H    -4.864000000    -3.016000000     1.277000000
O    -2.533000000    -2.406000000     5.431000000
H    -2.551000000    -1.551000000     5.001000000
H    -2.737000000    -2.218000000     6.347000000
O     1.040000000    -4.643000000     1.020000000
H     1.629000000    -4.071000000     0.527000000
H     0.162000000    -4.338000000     0.791000000
O     3.110000000     3.019000000     1.179000000
H     3.961000000     2.586000000     1.113000000
H     3.304000000     3.949000000     1.057000000
O     1.836000000    -5.364000000    -4.555000000
H     2.251000000    -4.612000000    -4.977000000
H     1.271000000    -4.981000000    -3.884000000
