158
-3039.57243
C     0.663000000     0.682000000     1.171000000
H     1.196000000     1.302000000     1.887000000
C     0.079000000     1.319000000     0.075000000
H    -0.029000000     2.401000000     0.067000000
C    -0.435000000     0.586000000    -0.985000000
H    -0.970000000     1.031000000    -1.825000000
C    -0.405000000    -0.850000000    -0.907000000
H    -0.909000000    -1.402000000    -1.696000000
C     0.137000000    -1.491000000     0.184000000
H     0.106000000    -2.577000000     0.173000000
C     0.610000000    -0.726000000     1.246000000
C     1.156000000    -1.456000000     2.433000000
O     1.178000000    -2.676000000     2.469000000
O     1.557000000    -0.752000000     3.293000000
O     2.540000000    -1.167000000     5.691000000
H     2.408000000    -2.104000000     5.553000000
H     2.147000000    -0.754000000     4.922000000
O    -4.924000000     0.435000000    -5.896000000
H    -4.315000000     0.369000000    -5.160000000
H    -5.309000000     1.307000000    -5.811000000
O    -3.023000000     2.598000000     2.145000000
H    -3.214000000     1.756000000     1.732000000
H    -2.814000000     2.377000000     3.053000000
O    -5.849000000    -0.568000000    -2.058000000
H    -6.587000000    -0.614000000    -2.666000000
H    -5.079000000    -0.729000000    -2.604000000
O    -0.530000000     1.448000000    -4.973000000
H    -0.313000000     1.394000000    -5.904000000
H     0.077000000     2.101000000    -4.623000000
O    -5.196000000     1.277000000    -0.222000000
H    -5.594000000     0.639000000    -0.814000000
H    -4.428000000     0.829000000     0.132000000
O     1.057000000     4.060000000     3.338000000
H     1.272000000     4.512000000     4.153000000
H     1.072000000     3.131000000     3.568000000
O    -4.005000000     4.292000000    -0.006000000
H    -3.342000000     3.734000000     0.401000000
H    -3.972000000     5.107000000     0.495000000
O    -3.290000000     1.115000000    -3.872000000
H    -2.867000000     0.742000000    -3.098000000
H    -2.580000000     1.541000000    -4.351000000
O     3.058000000     4.274000000    -0.624000000
H     3.643000000     4.239000000    -1.381000000
H     3.130000000     3.407000000    -0.225000000
O     3.302000000     2.000000000    -5.493000000
H     2.540000000     2.273000000    -4.983000000
H     3.996000000     1.884000000    -4.843000000
O    -0.449000000     7.341000000     1.415000000
H     0.184000000     6.672000000     1.153000000
H    -0.055000000     7.755000000     2.182000000
O    -0.387000000    -7.151000000     2.281000000
H    -0.372000000    -6.756000000     3.153000000
H     0.281000000    -6.674000000     1.789000000
O     4.372000000    -5.617000000     0.784000000
H     3.481000000    -5.509000000     1.117000000
H     4.901000000    -5.788000000     1.563000000
O     0.807000000     1.693000000     4.719000000
H     1.223000000     0.863000000     4.487000000
H     0.497000000     1.564000000     5.615000000
O     0.340000000    -4.698000000     7.300000000
H     0.366000000    -4.347000000     6.410000000
H     1.169000000    -5.166000000     7.398000000
O    -1.660000000    -1.325000000     3.874000000
H    -0.874000000    -1.709000000     4.262000000
H    -1.333000000    -0.616000000     3.321000000
O     6.160000000     0.061000000     3.216000000
H     6.002000000    -0.836000000     3.511000000
H     5.290000000     0.460000000     3.187000000
O     3.872000000    -2.967000000     0.262000000
H     3.473000000    -3.782000000    -0.043000000
H     4.716000000    -3.235000000     0.626000000
O    -0.519000000    -4.452000000     3.636000000
H    -0.086000000    -3.639000000     3.377000000
H    -1.224000000    -4.562000000     2.998000000
O    -4.439000000     5.680000000    -3.353000000
H    -3.813000000     6.122000000    -2.779000000
H    -4.493000000     4.790000000    -3.007000000
O    -1.952000000    -4.956000000     0.649000000
H    -2.158000000    -5.863000000     0.874000000
H    -1.452000000    -5.019000000    -0.165000000
O     0.506000000    -0.855000000    -6.489000000
H     0.929000000    -0.736000000    -7.340000000
H     1.220000000    -1.099000000    -5.900000000
O     1.469000000    -4.871000000     1.127000000
H     0.951000000    -4.880000000     0.322000000
H     1.184000000    -4.081000000     1.587000000
O     3.806000000    -0.312000000    -0.557000000
H     4.701000000    -0.519000000    -0.827000000
H     3.435000000    -1.154000000    -0.291000000
O    -2.666000000     0.212000000     1.024000000
H    -2.820000000    -0.728000000     1.117000000
H    -1.819000000     0.273000000     0.581000000
O     0.251000000     5.584000000    -2.558000000
H     0.158000000     5.075000000    -1.753000000
H    -0.597000000     6.016000000    -2.667000000
O    -1.431000000    -4.399000000    -4.103000000
H    -0.586000000    -4.159000000    -4.484000000
H    -1.976000000    -4.631000000    -4.855000000
O    -2.071000000     1.664000000     4.599000000
H    -2.162000000     1.753000000     5.547000000
H    -1.172000000     1.939000000     4.417000000
O     2.475000000     0.665000000    -2.894000000
H     1.540000000     0.551000000    -2.724000000
H     2.879000000     0.652000000    -2.026000000
O     1.295000000     3.751000000    -4.376000000
H     2.156000000     3.920000000    -3.993000000
H     0.704000000     4.341000000    -3.907000000
O    -4.773000000    -1.789000000     0.973000000
H    -5.677000000    -1.569000000     0.750000000
H    -4.548000000    -2.507000000     0.381000000
O    -2.278000000    -1.537000000    -5.906000000
H    -1.476000000    -1.053000000    -5.711000000
H    -2.712000000    -1.632000000    -5.058000000
O    -4.272000000    -2.525000000    -3.893000000
H    -3.727000000    -2.774000000    -3.146000000
H    -4.653000000    -3.348000000    -4.197000000
O    -3.671000000    -3.616000000    -1.303000000
H    -3.615000000    -4.366000000    -0.710000000
H    -4.567000000    -3.641000000    -1.638000000
O    -3.487000000    -3.967000000     2.579000000
H    -3.178000000    -4.306000000     1.739000000
H    -3.910000000    -3.137000000     2.361000000
O     4.271000000    -2.104000000     3.434000000
H     3.554000000    -2.231000000     2.813000000
H     3.844000000    -1.800000000     4.235000000
O    -2.314000000     3.960000000    -4.953000000
H    -3.044000000     4.106000000    -5.554000000
H    -2.399000000     4.655000000    -4.300000000
O     1.175000000    -3.780000000    -4.860000000
H     1.514000000    -2.975000000    -4.469000000
H     1.605000000    -3.832000000    -5.714000000
O    -0.224000000    -5.248000000    -1.548000000
H     0.596000000    -5.373000000    -2.025000000
H    -0.748000000    -4.683000000    -2.116000000
O     2.336000000    -4.002000000     4.747000000
H     2.082000000    -4.917000000     4.626000000
H     2.396000000    -3.652000000     3.858000000
O     3.929000000     5.075000000     2.733000000
H     3.261000000     4.457000000     2.437000000
H     3.434000000     5.827000000     3.058000000
O     2.788000000    -1.489000000    -4.613000000
H     2.805000000    -0.652000000    -4.150000000
H     3.660000000    -1.858000000    -4.474000000
O    -4.040000000     3.318000000    -2.434000000
H    -3.865000000     3.203000000    -1.500000000
H    -3.999000000     2.433000000    -2.796000000
O     4.610000000    -2.290000000     7.081000000
H     3.949000000    -2.958000000     7.265000000
H     4.142000000    -1.620000000     6.582000000
O     0.603000000     4.903000000     0.256000000
H     0.570000000     4.652000000     1.179000000
H     1.464000000     4.609000000    -0.041000000
O     3.647000000     1.193000000     3.399000000
H     3.443000000     1.799000000     4.112000000
H     2.931000000     0.559000000     3.411000000
O     4.287000000     1.870000000     0.713000000
H     4.081000000     1.781000000     1.644000000
H     3.883000000     1.105000000     0.304000000
