158
-3010.08201
C    -0.414000000     0.662000000    -1.264000000
H    -0.723000000     1.230000000    -2.138000000
C    -1.074000000     0.809000000    -0.031000000
H    -1.964000000     1.431000000     0.017000000
C    -0.611000000     0.123000000     1.102000000
H    -1.150000000     0.088000000     2.045000000
C     0.509000000    -0.665000000     0.966000000
H     0.845000000    -1.230000000     1.832000000
C     1.182000000    -0.814000000    -0.222000000
H     2.097000000    -1.379000000    -0.378000000
C     0.728000000    -0.207000000    -1.364000000
C     1.572000000    -0.216000000    -2.631000000
O     1.121000000     0.321000000    -3.636000000
O     2.623000000    -0.815000000    -2.703000000
O     5.647000000    -1.651000000    -5.701000000
H     4.761000000    -1.533000000    -6.044000000
H     5.789000000    -0.890000000    -5.137000000
O    -4.641000000    -3.495000000    -0.387000000
H    -5.377000000    -2.942000000    -0.646000000
H    -4.048000000    -2.904000000     0.077000000
O    -4.734000000    -0.727000000     2.739000000
H    -5.472000000    -1.186000000     3.141000000
H    -4.346000000    -0.225000000     3.456000000
O     0.252000000    -4.027000000     0.615000000
H    -0.260000000    -4.481000000     1.285000000
H     0.053000000    -3.100000000     0.750000000
O     3.108000000    -1.854000000     6.028000000
H     3.901000000    -1.701000000     6.542000000
H     3.317000000    -1.510000000     5.159000000
O    -4.568000000     4.553000000    -1.297000000
H    -4.502000000     5.026000000    -2.127000000
H    -5.509000000     4.451000000    -1.154000000
O    -3.363000000    -2.301000000    -3.938000000
H    -4.035000000    -2.886000000    -3.588000000
H    -3.638000000    -2.131000000    -4.839000000
O     1.060000000     1.263000000    -7.459000000
H     0.600000000     1.815000000    -6.827000000
H     1.175000000     1.824000000    -8.227000000
O     4.787000000    -3.147000000    -2.990000000
H     3.844000000    -3.061000000    -3.133000000
H     5.087000000    -3.708000000    -3.705000000
O    -2.733000000     4.050000000     0.776000000
H    -3.336000000     4.217000000     0.051000000
H    -2.920000000     4.744000000     1.407000000
O    -5.504000000     2.598000000     3.454000000
H    -5.038000000     3.387000000     3.729000000
H    -6.248000000     2.538000000     4.053000000
O    -0.429000000     1.812000000    -4.966000000
H    -1.303000000     1.425000000    -4.923000000
H     0.133000000     1.189000000    -4.505000000
O    -1.319000000     3.199000000     6.180000000
H    -0.413000000     3.368000000     6.441000000
H    -1.835000000     3.407000000     6.959000000
O     2.768000000    -3.164000000    -7.089000000
H     2.848000000    -3.797000000    -7.803000000
H     2.795000000    -3.695000000    -6.294000000
O     0.818000000     0.509000000     5.397000000
H     1.245000000     0.201000000     4.597000000
H     0.228000000     1.202000000     5.102000000
O    -1.453000000     3.974000000    -6.774000000
H    -2.136000000     3.567000000    -7.306000000
H    -1.234000000     3.311000000    -6.119000000
O    -0.436000000     5.626000000     4.006000000
H    -1.014000000     6.389000000     4.014000000
H    -0.976000000     4.921000000     3.648000000
O    -2.819000000    -2.382000000     1.382000000
H    -3.279000000    -2.107000000     2.175000000
H    -1.968000000    -2.689000000     1.693000000
O    -1.631000000    -4.215000000     5.625000000
H    -2.477000000    -4.658000000     5.694000000
H    -1.526000000    -3.768000000     6.465000000
O     4.421000000     4.938000000    -2.913000000
H     4.628000000     4.858000000    -1.982000000
H     4.194000000     4.048000000    -3.185000000
O    -3.040000000     0.859000000    -3.673000000
H    -3.067000000     0.100000000    -4.256000000
H    -3.579000000     0.603000000    -2.924000000
O     1.374000000     4.086000000    -0.012000000
H     1.763000000     3.222000000    -0.149000000
H     0.611000000     3.920000000     0.542000000
O    -2.853000000     4.037000000    -3.665000000
H    -2.025000000     3.927000000    -3.196000000
H    -3.298000000     3.195000000    -3.565000000
O    -4.826000000     0.960000000     0.496000000
H    -4.810000000     1.695000000     1.109000000
H    -4.540000000     0.209000000     1.016000000
O     3.208000000    -4.589000000     3.982000000
H     3.149000000    -4.627000000     4.936000000
H     3.856000000    -3.906000000     3.809000000
O     1.520000000     3.864000000     4.448000000
H     1.716000000     3.775000000     5.381000000
H     0.775000000     4.464000000     4.416000000
O     2.463000000    -5.354000000    -4.956000000
H     2.841000000    -6.061000000    -4.432000000
H     2.108000000    -4.742000000    -4.312000000
O     5.512000000    -1.934000000     1.134000000
H     5.213000000    -1.476000000     0.349000000
H     6.179000000    -2.542000000     0.817000000
O     2.023000000    -5.126000000    -1.399000000
H     2.082000000    -4.367000000    -1.979000000
H     1.531000000    -4.811000000    -0.641000000
O    -0.650000000     3.155000000     2.162000000
H    -1.339000000     3.418000000     1.552000000
H    -1.110000000     2.677000000     2.852000000
O     5.153000000    -0.793000000    -1.410000000
H     5.188000000    -1.565000000    -1.975000000
H     4.305000000    -0.393000000    -1.602000000
O     3.842000000    -0.811000000     3.752000000
H     3.370000000    -0.255000000     3.132000000
H     4.734000000    -0.851000000     3.408000000
O     3.255000000     1.369000000    -4.818000000
H     3.389000000     0.967000000    -5.676000000
H     2.611000000     0.806000000    -4.388000000
O    -1.078000000    -3.321000000     3.092000000
H    -1.395000000    -3.636000000     3.939000000
H    -0.170000000    -3.619000000     3.051000000
O     2.023000000    -3.261000000    -3.361000000
H     2.227000000    -2.352000000    -3.140000000
H     1.205000000    -3.209000000    -3.856000000
O    -7.792000000     0.853000000     2.384000000
H    -7.640000000     0.333000000     3.173000000
H    -6.944000000     1.254000000     2.193000000
O     5.939000000     0.574000000    -4.178000000
H     5.391000000     1.242000000    -4.590000000
H     5.551000000     0.446000000    -3.313000000
O    -0.980000000    -0.334000000     7.382000000
H    -0.389000000     0.140000000     6.798000000
H    -1.807000000     0.146000000     7.327000000
O     7.334000000     1.875000000    -1.833000000
H     7.525000000     2.260000000    -2.688000000
H     6.451000000     1.517000000    -1.923000000
O     1.935000000     3.691000000    -5.607000000
H     2.668000000     3.082000000    -5.694000000
H     1.210000000     3.149000000    -5.295000000
O    -3.272000000    -0.665000000    -6.352000000
H    -2.336000000    -0.784000000    -6.517000000
H    -3.659000000    -0.578000000    -7.223000000
O    -0.344000000    -2.492000000    -4.588000000
H    -1.070000000    -2.049000000    -4.149000000
H    -0.044000000    -1.865000000    -5.247000000
O     1.848000000     1.584000000     3.088000000
H     1.634000000     2.346000000     3.627000000
H     1.678000000     1.869000000     2.191000000
O    -5.381000000     0.174000000    -2.213000000
H    -5.618000000    -0.649000000    -1.787000000
H    -5.226000000     0.782000000    -1.491000000
O     3.006000000     1.905000000     0.146000000
H     2.763000000     1.020000000     0.418000000
H     3.355000000     2.312000000     0.940000000
O     4.405000000     2.226000000    -2.270000000
H     3.777000000     2.025000000    -2.964000000
H     3.909000000     2.121000000    -1.459000000
O     3.167000000    -0.500000000    -6.891000000
H     2.373000000     0.030000000    -6.950000000
H     2.852000000    -1.404000000    -6.880000000
O    -0.597000000    -0.799000000    -6.845000000
H     0.028000000    -0.076000000    -6.783000000
H    -0.429000000    -1.188000000    -7.703000000
