158
-3029.74719
C     1.126000000     0.945000000     0.103000000
H     1.964000000     1.638000000     0.101000000
C    -0.070000000     1.048000000     0.858000000
H    -0.285000000     1.957000000     1.413000000
C    -1.084000000     0.077000000     0.650000000
H    -1.943000000     0.101000000     1.251000000
C    -0.828000000    -1.031000000    -0.210000000
H    -1.531000000    -1.855000000    -0.299000000
C     0.352000000    -1.080000000    -0.896000000
H     0.468000000    -1.898000000    -1.602000000
C     1.370000000    -0.142000000    -0.733000000
C     2.646000000    -0.359000000    -1.459000000
O     2.832000000    -1.389000000    -2.112000000
O     3.541000000     0.406000000    -1.368000000
O    -4.719000000    -0.703000000     2.060000000
H    -3.901000000    -0.743000000     2.555000000
H    -4.519000000    -1.137000000     1.231000000
O     2.623000000    -4.041000000    -1.041000000
H     2.752000000    -3.104000000    -1.188000000
H     2.763000000    -4.439000000    -1.900000000
O    -2.053000000    -1.951000000    -4.325000000
H    -1.804000000    -1.027000000    -4.319000000
H    -1.382000000    -2.377000000    -4.858000000
O    -6.693000000     3.645000000     2.266000000
H    -6.330000000     2.967000000     2.836000000
H    -6.555000000     3.312000000     1.379000000
O     0.189000000    -0.937000000    -6.587000000
H     0.969000000    -0.894000000    -6.034000000
H     0.279000000    -1.761000000    -7.065000000
O    -0.481000000    -1.838000000     3.380000000
H    -1.009000000    -2.612000000     3.184000000
H     0.010000000    -1.673000000     2.575000000
O    -2.661000000    -0.309000000     3.752000000
H    -1.903000000    -0.892000000     3.791000000
H    -2.370000000     0.491000000     4.190000000
O    -4.990000000     1.261000000    -1.829000000
H    -4.278000000     1.517000000    -1.243000000
H    -4.964000000     0.304000000    -1.833000000
O     3.996000000     2.919000000    -1.718000000
H     4.055000000     1.965000000    -1.669000000
H     3.230000000     3.138000000    -1.187000000
O    -5.658000000     1.443000000     3.772000000
H    -5.026000000     1.351000000     4.484000000
H    -5.443000000     0.734000000     3.166000000
O     3.490000000     5.349000000    -2.821000000
H     3.211000000     5.260000000    -3.733000000
H     4.044000000     4.584000000    -2.665000000
O    -7.558000000    -1.805000000    -1.525000000
H    -7.317000000    -2.306000000    -0.746000000
H    -6.722000000    -1.521000000    -1.895000000
O     0.679000000     4.564000000     2.170000000
H     0.955000000     3.872000000     2.771000000
H    -0.071000000     4.972000000     2.602000000
O     3.867000000     2.503000000     2.380000000
H     4.636000000     2.205000000     1.893000000
H     3.404000000     1.697000000     2.611000000
O    -2.675000000    -2.904000000     6.232000000
H    -3.586000000    -3.160000000     6.375000000
H    -2.717000000    -1.967000000     6.039000000
O     2.034000000    -0.931000000    -4.554000000
H     2.322000000    -1.062000000    -3.650000000
H     2.294000000    -0.033000000    -4.760000000
O    -0.416000000    -4.148000000    -5.451000000
H    -0.591000000    -5.037000000    -5.760000000
H     0.381000000    -4.229000000    -4.927000000
O    -2.293000000    -4.327000000    -2.821000000
H    -1.425000000    -4.725000000    -2.744000000
H    -2.160000000    -3.572000000    -3.395000000
O    -2.014000000    -3.959000000     2.205000000
H    -1.552000000    -4.606000000     1.673000000
H    -2.701000000    -3.622000000     1.629000000
O     4.849000000    -2.907000000    -2.561000000
H     5.633000000    -2.456000000    -2.246000000
H     4.122000000    -2.362000000    -2.259000000
O    -1.794000000     4.731000000     0.407000000
H    -2.517000000     5.245000000     0.767000000
H    -1.455000000     5.264000000    -0.311000000
O     5.876000000    -0.069000000    -2.519000000
H     5.632000000    -0.052000000    -3.445000000
H     5.042000000    -0.045000000    -2.051000000
O    -2.288000000     0.942000000    -3.455000000
H    -2.928000000     1.477000000    -2.985000000
H    -2.301000000     0.099000000    -3.001000000
O     7.459000000     2.035000000    -0.809000000
H     8.191000000     1.421000000    -0.741000000
H     6.723000000     1.577000000    -0.404000000
O    -7.997000000     1.264000000     0.688000000
H    -8.567000000     1.478000000     1.426000000
H    -7.675000000     0.384000000     0.881000000
O    -2.663000000     2.233000000     5.012000000
H    -1.874000000     2.754000000     5.160000000
H    -3.339000000     2.670000000     5.529000000
O     4.521000000    -2.482000000     2.217000000
H     5.289000000    -2.508000000     1.647000000
H     4.215000000    -3.389000000     2.248000000
O     1.120000000     2.747000000     4.046000000
H     1.893000000     2.197000000     4.171000000
H     0.540000000     2.513000000     4.770000000
O     3.719000000     0.116000000     3.482000000
H     4.287000000    -0.413000000     2.922000000
H     3.093000000    -0.510000000     3.847000000
O     0.207000000    -3.340000000     5.613000000
H    -0.073000000    -2.794000000     4.878000000
H    -0.606000000    -3.580000000     6.057000000
O     2.531000000     3.997000000     0.302000000
H     3.000000000     3.668000000     1.068000000
H     1.651000000     4.194000000     0.625000000
O     1.797000000    -2.601000000     1.655000000
H     1.435000000    -1.924000000     1.083000000
H     2.744000000    -2.530000000     1.540000000
O     5.856000000    -4.968000000    -0.777000000
H     5.249000000    -4.253000000    -0.969000000
H     6.044000000    -5.358000000    -1.631000000
O    -7.451000000     1.830000000    -1.931000000
H    -7.667000000     2.075000000    -1.031000000
H    -6.551000000     1.509000000    -1.882000000
O    -3.174000000    -4.843000000    -0.257000000
H    -3.644000000    -5.671000000    -0.164000000
H    -2.835000000    -4.859000000    -1.152000000
O     0.149000000     3.361000000    -2.630000000
H     0.258000000     2.844000000    -1.832000000
H     0.061000000     2.710000000    -3.326000000
O     0.356000000    -5.654000000    -3.072000000
H     0.696000000    -6.500000000    -2.782000000
H     1.114000000    -5.209000000    -3.451000000
O     6.243000000     3.716000000    -3.004000000
H     7.072000000     3.387000000    -2.656000000
H     5.584000000     3.417000000    -2.376000000
O     0.781000000    -5.044000000     0.626000000
H     0.784000000    -4.234000000     1.136000000
H     1.163000000    -4.798000000    -0.217000000
O    -7.203000000    -1.127000000     1.373000000
H    -7.635000000    -1.889000000     1.758000000
H    -6.301000000    -1.179000000     1.687000000
O     4.725000000    -4.949000000    -4.314000000
H     5.594000000    -5.296000000    -4.515000000
H     4.874000000    -4.330000000    -3.599000000
O    -4.771000000    -1.431000000    -2.277000000
H    -4.663000000    -2.134000000    -1.636000000
H    -4.610000000    -1.851000000    -3.122000000
O     5.277000000     0.643000000     0.632000000
H     4.721000000     0.777000000    -0.136000000
H     5.553000000    -0.272000000     0.571000000
O     2.260000000    -3.871000000    -4.370000000
H     3.109000000    -4.313000000    -4.333000000
H     2.466000000    -2.946000000    -4.238000000
O     5.503000000     0.580000000    -5.391000000
H     6.055000000     0.330000000    -6.132000000
H     4.709000000     0.933000000    -5.792000000
O    -2.823000000     2.255000000    -0.585000000
H    -2.178000000     1.630000000    -0.255000000
H    -2.494000000     3.109000000    -0.305000000
O     6.926000000    -2.228000000     0.738000000
H     7.466000000    -2.474000000    -0.012000000
H     7.443000000    -1.568000000     1.200000000
O    -4.740000000    -2.584000000     0.006000000
H    -4.219000000    -3.375000000    -0.129000000
H    -5.600000000    -2.907000000     0.275000000
