158
-3014.15855
C    -0.693000000     1.129000000    -0.556000000
H    -1.046000000     2.136000000    -0.764000000
C    -0.198000000     1.039000000     0.704000000
H    -0.158000000     1.837000000     1.440000000
C     0.282000000    -0.189000000     1.135000000
H     0.492000000    -0.301000000     2.181000000
C     0.467000000    -1.279000000     0.214000000
H     0.888000000    -2.208000000     0.590000000
C     0.160000000    -1.033000000    -1.102000000
H     0.321000000    -1.784000000    -1.871000000
C    -0.525000000     0.090000000    -1.515000000
C    -0.843000000     0.424000000    -2.897000000
O    -1.060000000     1.564000000    -3.212000000
O    -0.889000000    -0.517000000    -3.694000000
O    -3.429000000    -1.252000000    -3.829000000
H    -3.468000000    -1.384000000    -4.776000000
H    -2.494000000    -1.184000000    -3.635000000
O    -2.931000000    -1.095000000    -6.464000000
H    -2.241000000    -1.709000000    -6.211000000
H    -2.462000000    -0.316000000    -6.761000000
O    -3.049000000     3.926000000     3.893000000
H    -2.336000000     4.354000000     4.366000000
H    -3.063000000     3.033000000     4.239000000
O     5.356000000     1.432000000     3.967000000
H     4.937000000     1.849000000     4.719000000
H     4.675000000     1.408000000     3.295000000
O     2.150000000     5.153000000     2.767000000
H     2.283000000     5.804000000     2.079000000
H     3.028000000     4.979000000     3.106000000
O    -0.557000000     1.797000000    -5.748000000
H     0.055000000     2.516000000    -5.902000000
H    -0.604000000     1.721000000    -4.795000000
O     3.564000000    -4.416000000     1.572000000
H     4.463000000    -4.524000000     1.883000000
H     3.274000000    -5.305000000     1.365000000
O    -4.119000000     1.553000000     1.285000000
H    -4.361000000     0.640000000     1.442000000
H    -3.908000000     1.588000000     0.352000000
O     2.743000000     0.804000000     7.407000000
H     3.272000000     0.201000000     6.885000000
H     1.874000000     0.404000000     7.428000000
O     2.979000000    -3.593000000    -0.934000000
H     3.093000000    -2.666000000    -1.143000000
H     3.223000000    -3.662000000    -0.011000000
O    -1.666000000    -0.107000000     6.381000000
H    -2.407000000     0.491000000     6.275000000
H    -0.955000000     0.305000000     5.891000000
O     0.852000000    -4.952000000     4.880000000
H     1.755000000    -4.637000000     4.911000000
H     0.327000000    -4.162000000     4.753000000
O     3.641000000     4.437000000    -4.265000000
H     4.305000000     3.753000000    -4.186000000
H     2.851000000     4.049000000    -3.890000000
O     2.878000000    -0.187000000     3.213000000
H     2.744000000    -1.127000000     3.329000000
H     3.470000000    -0.120000000     2.463000000
O    -4.516000000    -1.003000000    -1.337000000
H    -4.122000000    -0.132000000    -1.382000000
H    -4.294000000    -1.410000000    -2.174000000
O     0.743000000     0.751000000     4.977000000
H     1.502000000     0.195000000     4.803000000
H     0.839000000     1.484000000     4.368000000
O     1.950000000    -0.058000000    -3.954000000
H     2.046000000     0.853000000    -3.678000000
H     1.076000000    -0.308000000    -3.654000000
O     0.448000000    -0.744000000     8.562000000
H    -0.036000000    -0.526000000     9.359000000
H    -0.202000000    -0.681000000     7.862000000
O     4.455000000    -0.938000000     5.792000000
H     4.710000000    -1.847000000     5.636000000
H     4.761000000    -0.467000000     5.017000000
O    -4.342000000     4.678000000     1.425000000
H    -4.260000000     4.000000000     0.754000000
H    -3.974000000     4.279000000     2.213000000
O     4.970000000    -1.382000000     1.654000000
H     5.878000000    -1.129000000     1.820000000
H     5.011000000    -2.322000000     1.478000000
O    -0.113000000     0.242000000    -7.987000000
H    -0.716000000     0.651000000    -8.608000000
H    -0.299000000     0.674000000    -7.153000000
O     5.094000000     0.405000000    -0.667000000
H     4.925000000    -0.049000000    -1.492000000
H     4.751000000    -0.182000000     0.006000000
O    -1.707000000    -2.726000000     7.279000000
H    -1.791000000    -1.853000000     6.896000000
H    -1.005000000    -3.141000000     6.778000000
O    -2.304000000     4.847000000    -6.550000000
H    -1.748000000     5.596000000    -6.335000000
H    -2.579000000     4.501000000    -5.701000000
O     0.749000000     3.034000000     3.750000000
H     1.242000000     3.689000000     3.256000000
H    -0.016000000     3.506000000     4.077000000
O    -1.014000000    -2.815000000     4.175000000
H    -0.553000000    -2.023000000     3.901000000
H    -1.880000000    -2.739000000     3.774000000
O     2.289000000     2.543000000     0.409000000
H     1.765000000     2.279000000     1.165000000
H     3.040000000     1.949000000     0.419000000
O     0.931000000     3.756000000    -2.951000000
H     0.621000000     4.587000000    -2.592000000
H     0.375000000     3.095000000    -2.539000000
O     0.806000000     5.061000000    -0.175000000
H     1.402000000     4.313000000    -0.215000000
H     1.202000000     5.648000000     0.468000000
O    -1.078000000     4.422000000     5.655000000
H    -1.123000000     3.699000000     6.281000000
H    -0.169000000     4.718000000     5.696000000
O    -2.465000000     3.938000000    -3.960000000
H    -1.966000000     4.583000000    -3.459000000
H    -1.992000000     3.116000000    -3.829000000
O    -0.266000000    -1.891000000    -5.686000000
H     0.651000000    -2.156000000    -5.612000000
H    -0.380000000    -1.229000000    -5.004000000
O    -1.212000000     5.404000000    -2.128000000
H    -0.909000000     5.117000000    -1.266000000
H    -0.819000000     6.269000000    -2.244000000
O    -5.026000000     4.873000000    -3.728000000
H    -5.427000000     4.196000000    -3.183000000
H    -4.179000000     4.506000000    -3.982000000
O    -5.255000000     0.671000000    -4.468000000
H    -5.889000000     0.276000000    -5.067000000
H    -4.669000000    -0.047000000    -4.231000000
O     2.618000000    -2.892000000     3.591000000
H     2.815000000    -3.432000000     2.826000000
H     2.811000000    -3.457000000     4.339000000
O    -3.133000000     2.136000000    -7.229000000
H    -2.510000000     1.829000000    -6.570000000
H    -2.862000000     3.036000000    -7.413000000
O     3.313000000     0.915000000    -6.312000000
H     4.078000000     1.442000000    -6.082000000
H     2.942000000     0.650000000    -5.471000000
O     3.895000000    -1.202000000    -2.570000000
H     4.444000000    -1.725000000    -3.154000000
H     3.053000000    -1.143000000    -3.023000000
O    -2.899000000    -3.504000000    -0.863000000
H    -2.283000000    -3.388000000    -1.586000000
H    -3.382000000    -2.679000000    -0.824000000
O     1.144000000    -5.177000000    -2.702000000
H     1.219000000    -6.130000000    -2.650000000
H     1.650000000    -4.856000000    -1.956000000
O    -1.563000000    -4.865000000     1.585000000
H    -0.861000000    -4.354000000     1.989000000
H    -1.986000000    -4.254000000     0.981000000
O    -3.227000000    -2.655000000     2.750000000
H    -3.966000000    -3.262000000     2.775000000
H    -3.588000000    -1.853000000     2.372000000
O    -1.273000000    -3.698000000    -3.333000000
H    -0.455000000    -4.182000000    -3.222000000
H    -1.152000000    -3.205000000    -4.145000000
O    -3.659000000     1.571000000    -1.556000000
H    -2.941000000     2.039000000    -1.982000000
H    -4.413000000     1.715000000    -2.129000000
O    -3.231000000     6.448000000    -0.102000000
H    -2.953000000     5.852000000    -0.797000000
H    -3.691000000     5.889000000     0.524000000
O     1.412000000     3.267000000    -6.670000000
H     2.051000000     2.570000000    -6.817000000
H     1.941000000     4.055000000    -6.547000000
