158
-3017.61112
C    -0.778000000     1.215000000     0.331000000
H    -1.290000000     2.133000000     0.608000000
C     0.027000000     0.406000000     1.215000000
H     0.238000000     0.616000000     2.260000000
C     0.647000000    -0.678000000     0.714000000
H     1.276000000    -1.334000000     1.404000000
C     0.591000000    -1.093000000    -0.579000000
H     0.896000000    -2.125000000    -0.734000000
C    -0.066000000    -0.233000000    -1.501000000
H    -0.081000000    -0.568000000    -2.535000000
C    -0.766000000     0.966000000    -1.025000000
C    -1.439000000     1.922000000    -1.964000000
O    -2.121000000     2.802000000    -1.508000000
O    -1.385000000     1.747000000    -3.159000000
O     4.485000000    -3.647000000     4.913000000
H     3.693000000    -3.952000000     4.469000000
H     4.954000000    -3.144000000     4.246000000
O     1.125000000     1.174000000     7.509000000
H     1.792000000     0.967000000     8.163000000
H     1.622000000     1.469000000     6.745000000
O    -3.682000000     4.330000000     3.237000000
H    -2.908000000     3.824000000     2.991000000
H    -3.860000000     4.072000000     4.141000000
O     3.573000000     0.684000000     3.765000000
H     4.263000000     0.363000000     4.346000000
H     3.223000000    -0.104000000     3.351000000
O    -2.554000000    -1.414000000     4.975000000
H    -1.884000000    -1.302000000     4.301000000
H    -3.231000000    -0.777000000     4.747000000
O    -2.040000000     2.958000000    -5.460000000
H    -2.583000000     3.692000000    -5.175000000
H    -1.737000000     2.554000000    -4.647000000
O     2.637000000    -4.743000000     0.329000000
H     2.120000000    -4.416000000     1.065000000
H     2.008000000    -4.825000000    -0.388000000
O     4.001000000    -7.177000000     0.386000000
H     3.318000000    -6.537000000     0.582000000
H     3.527000000    -7.941000000     0.058000000
O     1.718000000     2.524000000     5.150000000
H     2.344000000     2.314000000     4.456000000
H     1.385000000     3.391000000     4.919000000
O     0.537000000    -0.508000000    -5.935000000
H     0.267000000    -0.111000000    -6.763000000
H     0.737000000     0.235000000    -5.367000000
O     1.435000000    -2.839000000    -4.658000000
H     1.225000000    -1.970000000    -5.002000000
H     0.808000000    -3.423000000    -5.084000000
O    -1.761000000     2.506000000     3.111000000
H    -1.387000000     2.340000000     3.976000000
H    -2.015000000     1.641000000     2.790000000
O    -3.133000000     0.227000000     2.202000000
H    -2.933000000    -0.376000000     1.485000000
H    -3.770000000     0.837000000     1.831000000
O     3.370000000     1.511000000    -2.956000000
H     2.568000000     1.066000000    -3.229000000
H     4.012000000     0.808000000    -2.853000000
O    -5.132000000    -1.337000000    -0.471000000
H    -4.213000000    -1.603000000    -0.455000000
H    -5.185000000    -0.700000000    -1.183000000
O    -3.225000000     0.213000000    -4.468000000
H    -2.953000000    -0.704000000    -4.492000000
H    -2.447000000     0.686000000    -4.172000000
O     0.294000000     4.637000000     1.208000000
H    -0.530000000     4.379000000     1.621000000
H     0.187000000     5.571000000     1.024000000
O     1.064000000     1.792000000    -4.541000000
H     0.367000000     1.925000000    -3.899000000
H     1.277000000     2.672000000    -4.850000000
O    -0.647000000     0.959000000     5.020000000
H     0.075000000     1.557000000     5.209000000
H    -0.221000000     0.154000000     4.725000000
O     0.770000000    -1.365000000     4.606000000
H     0.885000000    -2.292000000     4.814000000
H     1.508000000    -0.930000000     5.035000000
O    -5.105000000     1.999000000     1.688000000
H    -6.053000000     1.871000000     1.678000000
H    -4.987000000     2.888000000     2.024000000
O    -4.935000000    -0.013000000     4.144000000
H    -4.502000000    -0.047000000     3.291000000
H    -5.846000000     0.198000000     3.942000000
O     5.161000000     1.673000000     1.469000000
H     4.375000000     1.662000000     2.016000000
H     5.491000000     0.775000000     1.505000000
O    -1.309000000     2.386000000    -8.073000000
H    -1.069000000     1.467000000    -7.952000000
H    -1.747000000     2.628000000    -7.257000000
O     6.645000000    -4.586000000     1.529000000
H     5.918000000    -4.110000000     1.128000000
H     7.276000000    -4.702000000     0.820000000
O    -3.569000000    -3.831000000     5.076000000
H    -3.248000000    -2.930000000     5.040000000
H    -3.550000000    -4.130000000     4.167000000
O    -4.604000000     3.559000000    -2.548000000
H    -3.920000000     4.226000000    -2.607000000
H    -4.394000000     3.071000000    -1.752000000
O    -5.241000000     6.548000000     0.356000000
H    -4.560000000     5.919000000     0.116000000
H    -5.610000000     6.203000000     1.169000000
O     5.607000000    -1.127000000     1.605000000
H     6.220000000    -1.583000000     2.183000000
H     5.332000000    -1.793000000     0.974000000
O    -0.620000000    -5.848000000     3.070000000
H    -0.308000000    -5.270000000     2.373000000
H    -0.358000000    -6.725000000     2.789000000
O     1.823000000     2.637000000     1.989000000
H     1.342000000     1.970000000     1.500000000
H     1.339000000     3.448000000     1.828000000
O     0.785000000     4.600000000    -4.436000000
H     0.768000000     5.272000000    -5.116000000
H    -0.046000000     4.705000000    -3.974000000
O     2.604000000     4.318000000    -2.472000000
H     2.726000000     3.368000000    -2.479000000
H     1.978000000     4.484000000    -3.177000000
O    -1.777000000     4.814000000    -3.222000000
H    -1.652000000     5.493000000    -2.558000000
H    -1.871000000     4.004000000    -2.721000000
O    -0.625000000     6.889000000    -1.686000000
H    -0.472000000     6.779000000    -0.747000000
H     0.251000000     6.970000000    -2.063000000
O    -6.707000000     5.336000000    -3.168000000
H    -7.531000000     5.022000000    -2.797000000
H    -6.062000000     4.676000000    -2.914000000
O     0.837000000    -3.708000000     2.154000000
H     0.847000000    -3.794000000     3.108000000
H     0.419000000    -2.862000000     1.994000000
O    -4.444000000     1.504000000    -6.731000000
H    -4.060000000     1.091000000    -7.504000000
H    -3.911000000     1.189000000    -6.001000000
O     0.748000000    -4.001000000     5.013000000
H     1.067000000    -3.936000000     5.913000000
H     0.418000000    -4.897000000     4.940000000
O     4.874000000    -3.154000000     0.057000000
H     4.213000000    -3.847000000     0.052000000
H     5.129000000    -3.061000000    -0.861000000
O    -1.782000000    -4.485000000    -4.228000000
H    -2.559000000    -4.645000000    -4.763000000
H    -1.055000000    -4.497000000    -4.851000000
O     0.981000000    -4.756000000    -1.752000000
H     0.422000000    -3.986000000    -1.860000000
H     1.065000000    -5.117000000    -2.634000000
O    -1.635000000    -4.200000000    -1.377000000
H    -1.034000000    -4.841000000    -0.997000000
H    -1.905000000    -4.589000000    -2.209000000
O     5.443000000    -0.607000000     5.193000000
H     5.824000000    -0.991000000     5.983000000
H     6.062000000    -0.829000000     4.497000000
O    -2.311000000    -1.690000000    -0.130000000
H    -2.018000000    -2.554000000    -0.420000000
H    -1.524000000    -1.147000000    -0.161000000
O    -0.523000000    -3.526000000    -6.627000000
H    -0.931000000    -2.675000000    -6.788000000
H    -1.045000000    -4.142000000    -7.140000000
O    -5.223000000     0.584000000    -2.574000000
H    -4.530000000     0.227000000    -3.130000000
H    -5.534000000     1.357000000    -3.046000000
O    -2.935000000     4.869000000     0.178000000
H    -2.613000000     4.259000000    -0.486000000
H    -2.970000000     4.350000000     0.983000000
