158
-3050.05633
C     0.173000000     1.389000000    -0.467000000
H     0.479000000     2.408000000    -0.690000000
C    -0.085000000     0.991000000     0.844000000
H    -0.063000000     1.769000000     1.602000000
C    -0.158000000    -0.303000000     1.137000000
H    -0.327000000    -0.529000000     2.170000000
C    -0.152000000    -1.266000000     0.207000000
H    -0.262000000    -2.294000000     0.543000000
C     0.006000000    -0.922000000    -1.125000000
H     0.031000000    -1.679000000    -1.905000000
C     0.200000000     0.421000000    -1.452000000
C     0.559000000     0.789000000    -2.950000000
O     0.555000000     1.960000000    -3.209000000
O     0.808000000    -0.091000000    -3.724000000
O     2.440000000    -2.699000000    -6.785000000
H     2.642000000    -2.675000000    -5.850000000
H     1.613000000    -3.179000000    -6.839000000
O    -3.477000000    -1.576000000    -2.279000000
H    -4.169000000    -1.933000000    -2.834000000
H    -2.818000000    -1.255000000    -2.894000000
O     2.231000000    -2.753000000     6.115000000
H     2.508000000    -3.514000000     5.604000000
H     2.368000000    -2.008000000     5.530000000
O     3.566000000    -3.653000000    -1.793000000
H     3.880000000    -3.977000000    -2.638000000
H     4.355000000    -3.343000000    -1.347000000
O     2.464000000    -2.306000000    -3.903000000
H     2.607000000    -2.623000000    -3.011000000
H     1.740000000    -1.685000000    -3.823000000
O    -0.853000000     3.804000000     5.754000000
H    -1.376000000     3.741000000     4.955000000
H    -0.024000000     3.381000000     5.531000000
O    -4.600000000    -4.168000000     3.447000000
H    -4.243000000    -3.324000000     3.172000000
H    -4.342000000    -4.774000000     2.752000000
O    -2.728000000     4.870000000    -0.225000000
H    -3.591000000     4.457000000    -0.190000000
H    -2.321000000     4.509000000    -1.013000000
O    -1.667000000     3.383000000    -2.159000000
H    -2.466000000     2.898000000    -2.364000000
H    -0.964000000     2.862000000    -2.547000000
O    -2.610000000    -3.797000000     1.283000000
H    -3.250000000    -3.096000000     1.408000000
H    -1.942000000    -3.633000000     1.950000000
O     1.964000000     4.776000000     0.222000000
H     1.453000000     4.352000000    -0.468000000
H     2.708000000     5.166000000    -0.237000000
O     1.480000000    -0.058000000    -6.131000000
H     1.227000000     0.000000000    -5.210000000
H     2.191000000    -0.699000000    -6.144000000
O    -2.079000000     2.069000000     3.736000000
H    -2.981000000     2.306000000     3.520000000
H    -2.158000000     1.255000000     4.233000000
O    -1.474000000    -3.905000000    -4.190000000
H    -1.510000000    -3.665000000    -3.264000000
H    -1.451000000    -3.068000000    -4.654000000
O    -1.638000000     1.172000000    -6.412000000
H    -1.511000000     1.407000000    -7.331000000
H    -1.005000000     1.710000000    -5.937000000
O     4.432000000    -1.060000000     4.346000000
H     5.357000000    -1.292000000     4.432000000
H     4.341000000    -0.253000000     4.852000000
O    -0.153000000     6.600000000    -3.765000000
H     0.203000000     6.352000000    -2.911000000
H    -1.099000000     6.492000000    -3.670000000
O     4.729000000     1.948000000     3.168000000
H     3.849000000     2.081000000     2.814000000
H     4.601000000     1.897000000     4.115000000
O    -3.304000000    -0.033000000     0.121000000
H    -3.119000000    -0.490000000    -0.699000000
H    -2.517000000     0.486000000     0.288000000
O    -2.824000000    -0.174000000     4.933000000
H    -3.273000000     0.231000000     5.675000000
H    -2.002000000    -0.501000000     5.298000000
O     2.919000000    -2.148000000     2.342000000
H     3.070000000    -1.432000000     1.725000000
H     3.436000000    -1.914000000     3.112000000
O     0.581000000    -4.837000000    -5.844000000
H     0.104000000    -5.123000000    -6.622000000
H    -0.099000000    -4.524000000    -5.247000000
O    -6.809000000    -0.550000000     2.718000000
H    -5.914000000    -0.887000000     2.755000000
H    -7.101000000    -0.743000000     1.827000000
O    -0.935000000     4.200000000     2.158000000
H    -1.506000000     4.522000000     1.461000000
H    -1.292000000     3.341000000     2.382000000
O    -0.744000000    -1.918000000     6.078000000
H    -1.234000000    -2.592000000     6.550000000
H     0.143000000    -2.270000000     6.012000000
O     4.766000000     1.934000000    -5.145000000
H     4.796000000     1.027000000    -4.841000000
H     5.680000000     2.220000000    -5.138000000
O     0.376000000    -0.673000000    -8.705000000
H     0.575000000    -0.603000000    -7.771000000
H    -0.242000000     0.038000000    -8.872000000
O    -0.131000000    -7.020000000    -2.081000000
H     0.609000000    -7.490000000    -2.465000000
H     0.271000000    -6.354000000    -1.524000000
O     3.689000000     0.922000000    -2.234000000
H     4.170000000     0.098000000    -2.305000000
H     3.203000000     0.988000000    -3.057000000
O     2.371000000     4.070000000     5.231000000
H     2.179000000     3.860000000     4.317000000
H     3.179000000     4.582000000     5.195000000
O     3.064000000    -0.146000000     0.431000000
H     2.118000000    -0.012000000     0.485000000
H     3.329000000     0.333000000    -0.354000000
O     1.830000000     3.179000000     2.453000000
H     0.919000000     3.417000000     2.282000000
H     2.342000000     3.839000000     1.986000000
O     0.672000000     3.241000000    -5.777000000
H     0.524000000     3.111000000    -4.840000000
H     1.408000000     2.666000000    -5.985000000
O    -4.108000000    -1.580000000     2.299000000
H    -3.640000000    -1.113000000     2.991000000
H    -4.007000000    -1.025000000     1.525000000
O    -1.474000000    -0.975000000    -4.696000000
H    -0.613000000    -0.776000000    -4.330000000
H    -1.684000000    -0.217000000    -5.242000000
O     1.198000000     7.404000000     0.862000000
H     1.922000000     7.695000000     1.417000000
H     1.164000000     6.456000000     0.992000000
O     3.528000000     4.499000000    -4.837000000
H     4.195000000     4.996000000    -5.311000000
H     3.666000000     3.592000000    -5.109000000
O     1.558000000    -5.045000000    -0.370000000
H     2.403000000    -4.947000000    -0.808000000
H     1.635000000    -4.512000000     0.421000000
O     4.395000000     3.746000000    -0.903000000
H     4.801000000     3.191000000    -1.570000000
H     4.783000000     3.452000000    -0.079000000
O     3.155000000    -5.175000000     4.604000000
H     3.985000000    -5.191000000     4.128000000
H     2.507000000    -4.917000000     3.948000000
O    -1.580000000    -3.812000000    -1.356000000
H    -1.294000000    -4.069000000    -0.479000000
H    -2.099000000    -3.020000000    -1.216000000
O     1.469000000    -4.269000000     2.385000000
H     2.062000000    -3.519000000     2.325000000
H     0.721000000    -3.943000000     2.886000000
O     4.604000000    -0.814000000    -4.290000000
H     3.895000000    -1.440000000    -4.147000000
H     5.352000000    -1.353000000    -4.546000000
O    -3.849000000     2.330000000    -3.226000000
H    -4.579000000     1.720000000    -3.118000000
H    -4.066000000     2.827000000    -4.014000000
O    -2.552000000    -6.661000000     1.940000000
H    -1.629000000    -6.891000000     2.048000000
H    -2.538000000    -5.820000000     1.483000000
O    -1.036000000    -3.521000000     3.451000000
H    -1.239000000    -4.269000000     4.013000000
H    -0.904000000    -2.793000000     4.059000000
O     1.861000000     4.023000000    -2.501000000
H     1.554000000     3.143000000    -2.716000000
H     2.274000000     4.336000000    -3.306000000
O     2.651000000     2.199000000    -7.305000000
H     2.249000000     1.470000000    -6.833000000
H     3.590000000     2.012000000    -7.281000000
