158
-3032.32574
C    -1.332000000     0.563000000    -0.382000000
H    -2.322000000     0.998000000    -0.489000000
C    -1.027000000    -0.103000000     0.854000000
H    -1.678000000    -0.146000000     1.724000000
C     0.275000000    -0.574000000     1.076000000
H     0.580000000    -1.017000000     1.939000000
C     1.121000000    -0.538000000     0.004000000
H     2.140000000    -0.875000000     0.176000000
C     0.820000000     0.122000000    -1.177000000
H     1.614000000     0.209000000    -1.915000000
C    -0.434000000     0.707000000    -1.391000000
C    -0.680000000     1.459000000    -2.617000000
O    -1.784000000     1.541000000    -3.058000000
O     0.214000000     1.903000000    -3.320000000
O    -5.870000000     3.953000000    -4.253000000
H    -5.068000000     3.551000000    -3.919000000
H    -6.549000000     3.682000000    -3.636000000
O    -2.664000000     2.356000000    -7.246000000
H    -2.428000000     2.469000000    -8.167000000
H    -1.859000000     2.552000000    -6.766000000
O     1.107000000    -1.168000000     6.884000000
H     0.964000000    -1.053000000     5.944000000
H     1.029000000    -0.286000000     7.248000000
O    -0.924000000     2.311000000     3.889000000
H    -0.537000000     2.407000000     3.019000000
H    -0.439000000     2.929000000     4.436000000
O     4.728000000    -3.783000000     2.584000000
H     5.682000000    -3.760000000     2.507000000
H     4.420000000    -3.944000000     1.693000000
O    -0.828000000    -0.760000000    -7.362000000
H    -1.054000000    -0.109000000    -6.697000000
H    -0.897000000    -1.600000000    -6.909000000
O    -5.765000000    -0.178000000    -0.976000000
H    -5.027000000    -0.704000000    -0.671000000
H    -5.418000000     0.313000000    -1.721000000
O     3.841000000     1.298000000     1.715000000
H     4.302000000     1.959000000     1.200000000
H     4.266000000     0.473000000     1.481000000
O     1.466000000    -5.936000000     3.931000000
H     1.041000000    -5.288000000     3.369000000
H     2.403000000    -5.805000000     3.783000000
O    -1.686000000    -4.229000000     6.060000000
H    -1.459000000    -5.133000000     5.844000000
H    -1.339000000    -3.714000000     5.331000000
O     4.241000000    -6.136000000     3.787000000
H     4.225000000    -5.396000000     3.180000000
H     4.840000000    -6.764000000     3.383000000
O    -4.407000000    -1.852000000     1.004000000
H    -4.464000000    -2.807000000     1.008000000
H    -5.230000000    -1.561000000     1.398000000
O     4.356000000    -3.604000000    -0.118000000
H     3.718000000    -4.022000000    -0.696000000
H     5.163000000    -3.576000000    -0.633000000
O    -3.246000000    -2.212000000    -2.100000000
H    -2.525000000    -2.658000000    -1.657000000
H    -2.822000000    -1.687000000    -2.779000000
O    -2.395000000    -0.666000000    -4.571000000
H    -3.144000000    -0.414000000    -5.113000000
H    -2.127000000     0.146000000    -4.141000000
O     0.886000000    -0.108000000     4.408000000
H     1.739000000    -0.206000000     3.985000000
H     0.489000000     0.648000000     3.975000000
O     1.923000000     0.880000000    -4.913000000
H     2.782000000     1.171000000    -4.606000000
H     1.305000000     1.251000000    -4.283000000
O     3.946000000    -0.798000000     6.446000000
H     3.008000000    -0.859000000     6.623000000
H     4.000000000    -0.504000000     5.536000000
O     5.028000000    -0.949000000     0.599000000
H     5.949000000    -1.209000000     0.614000000
H     4.546000000    -1.776000000     0.592000000
O    -6.373000000     1.544000000     1.181000000
H    -5.473000000     1.846000000     1.055000000
H    -6.418000000     0.717000000     0.703000000
O    -3.199000000     3.328000000     0.952000000
H    -4.043000000     3.605000000     1.309000000
H    -3.117000000     3.810000000     0.130000000
O     3.604000000     1.125000000     4.227000000
H     3.690000000     1.970000000     4.670000000
H     3.487000000     1.349000000     3.304000000
O    -0.155000000     6.568000000    -5.837000000
H     0.366000000     7.147000000    -6.394000000
H     0.438000000     5.849000000    -5.618000000
O     1.450000000     2.375000000     1.033000000
H     2.180000000     2.051000000     1.560000000
H     1.036000000     1.586000000     0.685000000
O    -0.885000000    -2.478000000     4.283000000
H    -0.197000000    -1.813000000     4.248000000
H    -1.637000000    -2.023000000     4.661000000
O     6.454000000     0.386000000    -1.611000000
H     5.949000000     0.012000000    -0.888000000
H     6.910000000    -0.362000000    -1.995000000
O    -0.600000000     2.960000000    -5.717000000
H     0.173000000     3.484000000    -5.924000000
H    -0.361000000     2.484000000    -4.921000000
O     1.504000000    -5.901000000     0.361000000
H     1.174000000    -5.233000000     0.962000000
H     1.208000000    -6.729000000     0.738000000
O    -3.208000000     3.332000000    -4.447000000
H    -2.503000000     3.571000000    -5.049000000
H    -2.825000000     2.657000000    -3.887000000
O    -6.007000000     0.138000000     3.785000000
H    -5.598000000    -0.189000000     4.586000000
H    -5.278000000     0.472000000     3.263000000
O     1.672000000    -1.920000000    -5.164000000
H     1.833000000    -2.035000000    -6.100000000
H     1.397000000    -1.008000000    -5.077000000
O     1.974000000     4.618000000    -5.600000000
H     2.728000000     4.932000000    -5.100000000
H     2.351000000     4.262000000    -6.404000000
O    -3.426000000     1.369000000     3.019000000
H    -2.845000000     1.899000000     3.565000000
H    -3.199000000     1.610000000     2.122000000
O    -1.906000000     4.140000000    -1.518000000
H    -1.055000000     4.505000000    -1.763000000
H    -1.923000000     3.276000000    -1.928000000
O     0.643000000     4.685000000    -3.195000000
H     1.241000000     4.717000000    -3.941000000
H     0.376000000     3.767000000    -3.143000000
O    -0.874000000     6.927000000    -2.372000000
H    -0.721000000     6.167000000    -2.933000000
H    -0.008000000     7.318000000    -2.256000000
O    -4.562000000     0.371000000    -6.302000000
H    -5.075000000     0.503000000    -7.100000000
H    -3.799000000     0.939000000    -6.412000000
O     2.407000000    -4.674000000    -1.829000000
H     1.818000000    -4.961000000    -1.131000000
H     2.243000000    -5.284000000    -2.548000000
O     0.090000000    -3.891000000     1.927000000
H    -0.419000000    -3.544000000     2.660000000
H    -0.125000000    -3.316000000     1.193000000
O     3.927000000    -0.902000000    -6.344000000
H     3.887000000     0.047000000    -6.461000000
H     3.636000000    -1.045000000    -5.443000000
O     3.632000000    -2.193000000    -3.136000000
H     2.924000000    -1.737000000    -3.591000000
H     3.233000000    -3.007000000    -2.827000000
O    -0.242000000    -2.588000000    -3.411000000
H     0.565000000    -2.558000000    -3.925000000
H    -0.942000000    -2.553000000    -4.063000000
O    -0.779000000    -2.798000000    -0.815000000
H    -0.775000000    -1.862000000    -0.614000000
H    -0.405000000    -2.857000000    -1.694000000
O     4.431000000     0.787000000    -3.782000000
H     5.248000000     1.136000000    -4.139000000
H     4.710000000     0.165000000    -3.110000000
O    -2.953000000    -0.766000000     4.728000000
H    -3.084000000    -0.059000000     4.096000000
H    -3.261000000    -0.404000000     5.559000000
O    -4.737000000     0.959000000    -3.268000000
H    -3.792000000     1.022000000    -3.404000000
H    -5.055000000     0.466000000    -4.024000000
O     0.418000000     5.395000000     1.121000000
H     0.165000000     4.520000000     0.828000000
H     1.119000000     5.655000000     0.524000000
O     1.637000000     0.472000000    -7.754000000
H     1.581000000     0.853000000    -6.878000000
H     0.928000000    -0.171000000    -7.780000000
