158
-3047.18542
C    -1.127000000     0.897000000    -0.360000000
H    -2.030000000     1.481000000    -0.514000000
C    -0.798000000     0.476000000     0.966000000
H    -1.458000000     0.683000000     1.805000000
C     0.293000000    -0.376000000     1.164000000
H     0.559000000    -0.629000000     2.176000000
C     1.090000000    -0.726000000     0.073000000
H     1.933000000    -1.406000000     0.160000000
C     0.738000000    -0.306000000    -1.217000000
H     1.297000000    -0.752000000    -2.036000000
C    -0.349000000     0.523000000    -1.420000000
C    -0.562000000     1.158000000    -2.803000000
O    -1.604000000     1.788000000    -3.119000000
O     0.320000000     0.921000000    -3.644000000
O    -3.595000000     2.916000000    -5.686000000
H    -3.859000000     3.210000000    -6.558000000
H    -3.150000000     3.672000000    -5.303000000
O     0.114000000     3.600000000     3.043000000
H     0.707000000     3.790000000     2.317000000
H     0.529000000     4.007000000     3.804000000
O    -1.172000000     1.749000000    -6.852000000
H    -0.640000000     2.094000000    -6.135000000
H    -2.007000000     1.521000000    -6.442000000
O    -4.847000000     3.972000000     0.389000000
H    -4.740000000     3.090000000     0.746000000
H    -4.735000000     3.863000000    -0.555000000
O     0.820000000    -6.475000000     3.830000000
H     0.621000000    -7.383000000     3.598000000
H    -0.036000000    -6.054000000     3.907000000
O     5.077000000     2.278000000     4.381000000
H     4.624000000     2.837000000     3.749000000
H     4.945000000     1.389000000     4.051000000
O     1.348000000    -4.541000000     5.696000000
H     1.307000000    -5.101000000     4.921000000
H     2.184000000    -4.081000000     5.616000000
O     2.396000000    -4.470000000    -1.733000000
H     2.405000000    -3.881000000    -2.488000000
H     1.923000000    -5.244000000    -2.038000000
O     0.250000000    -0.461000000     7.979000000
H     1.110000000    -0.882000000     7.968000000
H    -0.168000000    -0.747000000     7.167000000
O     3.909000000    -3.341000000     5.685000000
H     4.633000000    -2.785000000     5.398000000
H     4.328000000    -4.156000000     5.962000000
O    -4.560000000     1.445000000     1.029000000
H    -5.062000000     1.030000000     1.730000000
H    -4.561000000     0.801000000     0.320000000
O     5.346000000    -0.683000000     1.059000000
H     4.821000000    -1.385000000     0.676000000
H     6.189000000    -0.741000000     0.610000000
O    -4.261000000    -0.420000000    -0.883000000
H    -3.580000000    -1.084000000    -0.780000000
H    -4.201000000    -0.155000000    -1.801000000
O    -3.571000000     0.048000000    -3.621000000
H    -4.191000000     0.488000000    -4.202000000
H    -2.913000000     0.715000000    -3.425000000
O     0.923000000     1.571000000     4.820000000
H     1.470000000     2.294000000     5.128000000
H     0.436000000     1.937000000     4.082000000
O     2.790000000    -0.027000000    -4.378000000
H     3.325000000     0.666000000    -3.991000000
H     1.918000000     0.110000000    -4.009000000
O     3.749000000    -0.198000000     6.103000000
H     2.846000000    -0.330000000     5.815000000
H     4.279000000    -0.404000000     5.334000000
O     5.284000000    -0.397000000     3.815000000
H     6.178000000    -0.655000000     4.041000000
H     5.306000000    -0.263000000     2.867000000
O    -3.114000000     5.716000000     1.213000000
H    -3.740000000     5.019000000     1.015000000
H    -2.262000000     5.345000000     0.985000000
O     0.117000000    -0.456000000    -8.212000000
H    -0.392000000    -0.467000000    -9.023000000
H    -0.195000000     0.318000000    -7.743000000
O    -1.109000000    -5.225000000     0.527000000
H    -0.185000000    -5.254000000     0.278000000
H    -1.119000000    -4.739000000     1.352000000
O    -3.500000000    -1.232000000     6.750000000
H    -3.506000000    -0.584000000     7.455000000
H    -2.702000000    -1.042000000     6.258000000
O     1.713000000     2.888000000     0.663000000
H     2.485000000     2.378000000     0.418000000
H     0.989000000     2.263000000     0.616000000
O     5.674000000    -3.786000000     2.620000000
H     6.342000000    -3.212000000     2.996000000
H     5.545000000    -3.453000000     1.732000000
O    -0.616000000    -0.737000000     5.387000000
H    -0.237000000     0.059000000     5.014000000
H    -1.330000000    -0.964000000     4.791000000
O     3.700000000     1.265000000    -0.736000000
H     4.256000000     0.531000000    -0.476000000
H     3.846000000     1.354000000    -1.678000000
O     1.029000000     2.911000000    -5.271000000
H     0.782000000     3.824000000    -5.130000000
H     0.610000000     2.436000000    -4.553000000
O     3.068000000     3.938000000    -2.448000000
H     2.961000000     3.643000000    -3.353000000
H     3.470000000     3.194000000    -2.000000000
O     1.820000000    -3.750000000     1.824000000
H     1.188000000    -4.060000000     2.472000000
H     1.341000000    -3.096000000     1.316000000
O    -2.054000000     4.968000000    -4.022000000
H    -1.138000000     5.199000000    -3.871000000
H    -2.352000000     4.609000000    -3.186000000
O    -4.337000000     1.692000000     5.016000000
H    -4.143000000     1.901000000     5.930000000
H    -3.635000000     2.113000000     4.520000000
O     0.003000000    -0.947000000    -5.383000000
H     0.522000000    -0.648000000    -6.130000000
H    -0.032000000    -0.189000000    -4.799000000
O     0.505000000     5.542000000    -3.786000000
H     1.041000000     5.927000000    -3.093000000
H     0.651000000     6.107000000    -4.544000000
O    -2.454000000     2.667000000     3.216000000
H    -1.540000000     2.782000000     2.956000000
H    -2.955000000     2.850000000     2.420000000
O    -5.744000000     3.084000000    -3.653000000
H    -6.668000000     3.017000000    -3.893000000
H    -5.280000000     2.629000000    -4.355000000
O     4.020000000    -3.135000000     0.364000000
H     3.341000000    -3.425000000     0.973000000
H     3.804000000    -3.570000000    -0.461000000
O    -0.474000000    -3.360000000     3.084000000
H    -0.426000000    -2.792000000     3.852000000
H    -1.408000000    -3.408000000     2.879000000
O     3.755000000     0.515000000    -7.295000000
H     4.676000000     0.389000000    -7.067000000
H     3.296000000     0.501000000    -6.455000000
O     2.910000000    -2.554000000    -3.475000000
H     3.639000000    -1.940000000    -3.392000000
H     2.321000000    -2.142000000    -4.108000000
O    -2.124000000    -2.432000000    -4.573000000
H    -1.252000000    -2.106000000    -4.799000000
H    -2.611000000    -1.651000000    -4.310000000
O    -2.273000000    -2.239000000    -1.007000000
H    -1.358000000    -1.960000000    -0.970000000
H    -2.280000000    -2.954000000    -1.644000000
O     4.684000000     1.567000000    -3.222000000
H     5.304000000     2.199000000    -3.587000000
H     5.216000000     0.797000000    -3.023000000
O    -3.022000000    -3.235000000     1.912000000
H    -3.910000000    -3.237000000     2.269000000
H    -3.139000000    -3.042000000     0.981000000
O    -2.594000000    -0.805000000     3.575000000
H    -2.794000000    -1.496000000     2.945000000
H    -3.302000000    -0.170000000     3.468000000
O    -3.471000000     3.486000000    -2.120000000
H    -2.958000000     2.760000000    -2.473000000
H    -4.311000000     3.430000000    -2.575000000
O    -0.472000000     4.861000000     0.164000000
H    -0.064000000     4.980000000    -0.693000000
H     0.171000000     4.364000000     0.669000000
O     2.166000000     2.634000000    -7.993000000
H     2.758000000     1.884000000    -7.940000000
H     1.907000000     2.799000000    -7.086000000
O    -6.073000000     0.296000000     3.030000000
H    -5.447000000     0.225000000     3.751000000
H    -6.089000000    -0.578000000     2.641000000
