158
-3061.82658
C    -0.762000000     0.558000000    -1.072000000
H    -1.328000000     1.037000000    -1.866000000
C    -0.255000000     1.289000000     0.017000000
H    -0.680000000     2.283000000     0.120000000
C     0.536000000     0.618000000     0.954000000
H     0.844000000     1.125000000     1.890000000
C     0.767000000    -0.737000000     0.798000000
H     1.286000000    -1.309000000     1.563000000
C     0.177000000    -1.436000000    -0.271000000
H     0.359000000    -2.499000000    -0.406000000
C    -0.554000000    -0.822000000    -1.212000000
C    -1.063000000    -1.513000000    -2.425000000
O    -1.458000000    -0.920000000    -3.418000000
O    -1.255000000    -2.707000000    -2.387000000
O    -2.988000000     2.410000000     4.625000000
H    -2.334000000     3.073000000     4.402000000
H    -3.726000000     2.597000000     4.046000000
O    -1.575000000    -3.900000000    -7.238000000
H    -2.348000000    -3.499000000    -6.840000000
H    -0.849000000    -3.336000000    -6.971000000
O    -2.825000000     2.158000000    -5.445000000
H    -3.580000000     2.530000000    -5.900000000
H    -2.935000000     1.211000000    -5.533000000
O     1.180000000     2.289000000     4.796000000
H     1.935000000     2.518000000     5.338000000
H     1.086000000     1.342000000     4.904000000
O    -2.557000000    -0.253000000     5.241000000
H    -2.839000000     0.606000000     4.925000000
H    -3.282000000    -0.557000000     5.787000000
O     2.516000000    -4.102000000    -1.083000000
H     2.441000000    -5.046000000    -1.223000000
H     2.255000000    -3.714000000    -1.918000000
O    -2.875000000    -0.867000000     1.845000000
H    -2.105000000    -0.329000000     1.663000000
H    -3.459000000    -0.710000000     1.104000000
O     0.416000000    -0.349000000     4.895000000
H     0.282000000    -0.474000000     5.834000000
H    -0.467000000    -0.316000000     4.529000000
O    -4.654000000    -4.147000000     0.635000000
H    -4.870000000    -4.711000000    -0.107000000
H    -3.699000000    -4.185000000     0.694000000
O    -3.953000000    -2.555000000    -7.067000000
H    -4.735000000    -2.338000000    -7.575000000
H    -4.262000000    -2.607000000    -6.162000000
O     0.042000000    -2.178000000    -5.737000000
H     0.590000000    -1.954000000    -6.488000000
H    -0.175000000    -1.336000000    -5.338000000
O     4.736000000     0.002000000     2.690000000
H     4.269000000    -0.516000000     3.346000000
H     4.450000000    -0.360000000     1.851000000
O     4.255000000    -1.197000000     0.217000000
H     4.729000000    -1.997000000    -0.011000000
H     3.526000000    -1.166000000    -0.403000000
O     5.187000000    -3.562000000    -0.766000000
H     4.316000000    -3.957000000    -0.796000000
H     5.698000000    -4.148000000    -0.209000000
O    -0.297000000     5.070000000     1.510000000
H     0.504000000     4.561000000     1.384000000
H    -0.458000000     5.035000000     2.453000000
O     3.784000000     4.455000000     3.766000000
H     3.325000000     4.954000000     4.441000000
H     4.229000000     3.757000000     4.245000000
O    -0.567000000    -4.354000000     5.044000000
H    -1.084000000    -3.778000000     4.481000000
H    -0.975000000    -4.277000000     5.906000000
O     2.696000000     0.478000000    -1.861000000
H     2.702000000     1.251000000    -1.296000000
H     1.895000000     0.012000000    -1.622000000
O     3.383000000     2.745000000     6.401000000
H     4.003000000     2.433000000     5.742000000
H     3.918000000     3.246000000     7.016000000
O     5.903000000     2.325000000    -0.007000000
H     6.754000000     1.935000000    -0.209000000
H     5.433000000     1.639000000     0.467000000
O    -4.107000000    -5.165000000    -4.567000000
H    -3.469000000    -5.715000000    -5.022000000
H    -3.659000000    -4.328000000    -4.445000000
O    -1.493000000     6.042000000    -3.405000000
H    -0.848000000     5.385000000    -3.667000000
H    -1.524000000     5.980000000    -2.451000000
O     2.822000000    -0.766000000    -4.602000000
H     3.314000000    -0.365000000    -5.319000000
H     2.698000000    -0.057000000    -3.971000000
O     5.063000000     2.156000000     4.241000000
H     4.724000000     1.454000000     3.686000000
H     5.918000000     2.366000000     3.866000000
O     1.211000000     2.135000000    -6.819000000
H     2.083000000     1.852000000    -6.544000000
H     0.630000000     1.837000000    -6.119000000
O    -2.056000000     6.535000000    -0.418000000
H    -2.587000000     5.757000000    -0.248000000
H    -1.516000000     6.633000000     0.367000000
O     1.983000000     3.231000000     2.157000000
H     2.348000000     3.532000000     2.989000000
H     1.578000000     2.389000000     2.363000000
O    -1.885000000    -4.779000000     0.683000000
H    -1.769000000    -4.595000000    -0.250000000
H    -1.005000000    -4.708000000     1.052000000
O    -5.851000000    -2.233000000    -1.330000000
H    -6.530000000    -2.893000000    -1.464000000
H    -5.379000000    -2.530000000    -0.552000000
O    -2.607000000    -0.595000000    -5.851000000
H    -2.905000000    -1.331000000    -6.385000000
H    -2.285000000    -0.998000000    -5.045000000
O     1.454000000    -7.178000000     2.220000000
H     1.517000000    -6.371000000     1.710000000
H     0.693000000    -7.045000000     2.786000000
O     2.787000000     5.862000000     1.131000000
H     2.982000000     6.778000000     1.328000000
H     2.975000000     5.396000000     1.946000000
O    -0.404000000     1.396000000    -4.749000000
H    -0.468000000     0.752000000    -4.044000000
H    -1.310000000     1.650000000    -4.925000000
O     0.614000000     4.299000000    -3.862000000
H     0.788000000     3.757000000    -3.093000000
H     1.272000000     4.026000000    -4.501000000
O    -5.994000000    -0.353000000    -4.672000000
H    -5.848000000     0.492000000    -4.247000000
H    -5.325000000    -0.928000000    -4.299000000
O     2.071000000    -4.224000000     4.248000000
H     1.390000000    -4.296000000     4.917000000
H     2.733000000    -4.865000000     4.510000000
O     2.094000000    -5.400000000    -5.409000000
H     1.231000000    -5.775000000    -5.231000000
H     2.151000000    -4.643000000    -4.827000000
O    -0.937000000    -5.647000000    -2.471000000
H    -0.576000000    -6.030000000    -3.271000000
H    -1.109000000    -4.733000000    -2.700000000
O     1.912000000    -3.199000000    -3.906000000
H     2.528000000    -2.468000000    -3.932000000
H     1.094000000    -2.836000000    -4.245000000
O    -2.470000000    -2.721000000     3.631000000
H    -2.672000000    -2.341000000     2.776000000
H    -2.480000000    -1.976000000     4.232000000
O     2.784000000     2.725000000    -0.709000000
H     3.331000000     3.459000000    -0.989000000
H     2.697000000     2.839000000     0.238000000
O    -5.272000000    -5.666000000    -1.697000000
H    -4.713000000    -5.329000000    -2.396000000
H    -6.151000000    -5.362000000    -1.924000000
O    -0.630000000     4.375000000     4.495000000
H    -0.557000000     4.634000000     5.414000000
H    -0.092000000     3.587000000     4.425000000
O     0.843000000    -4.436000000     1.421000000
H     1.434000000    -4.195000000     0.707000000
H     1.210000000    -4.003000000     2.191000000
O    -3.990000000    -2.124000000    -3.751000000
H    -4.484000000    -2.359000000    -2.966000000
H    -3.104000000    -1.948000000    -3.433000000
O    -4.153000000     4.434000000    -0.889000000
H    -4.414000000     4.411000000    -1.810000000
H    -3.456000000     3.781000000    -0.822000000
O    -5.064000000     0.343000000     0.134000000
H    -5.074000000    -0.025000000    -0.750000000
H    -5.435000000     1.220000000     0.032000000
O     2.664000000    -1.564000000     3.827000000
H     2.667000000    -2.509000000     3.979000000
H     1.800000000    -1.276000000     4.121000000
