158
-3053.98896
C    -1.131000000     0.993000000    -0.192000000
H    -1.785000000     1.847000000    -0.038000000
C    -0.780000000     0.350000000     0.997000000
H    -1.172000000     0.565000000     1.988000000
C     0.223000000    -0.622000000     1.034000000
H     0.495000000    -1.100000000     1.982000000
C     0.906000000    -0.963000000    -0.127000000
H     1.773000000    -1.617000000    -0.085000000
C     0.591000000    -0.285000000    -1.323000000
H     1.203000000    -0.542000000    -2.184000000
C    -0.393000000     0.722000000    -1.419000000
C    -0.722000000     1.452000000    -2.697000000
O    -1.423000000     2.440000000    -2.660000000
O    -0.258000000     1.097000000    -3.776000000
O    -4.082000000     6.471000000    -1.302000000
H    -4.632000000     5.701000000    -1.441000000
H    -3.186000000     6.146000000    -1.399000000
O    -5.620000000     4.185000000    -1.651000000
H    -5.196000000     3.363000000    -1.405000000
H    -6.534000000     4.070000000    -1.391000000
O     0.794000000    -1.798000000     6.172000000
H     1.035000000    -2.304000000     5.396000000
H     0.632000000    -0.914000000     5.842000000
O    -1.715000000     3.123000000     4.682000000
H    -1.053000000     3.813000000     4.662000000
H    -2.033000000     3.070000000     3.780000000
O     5.178000000    -3.245000000     2.757000000
H     5.613000000    -2.423000000     2.531000000
H     5.576000000    -3.895000000     2.177000000
O    -5.248000000     4.304000000    -4.678000000
H    -5.482000000     4.136000000    -3.765000000
H    -4.697000000     3.561000000    -4.925000000
O    -4.970000000     1.929000000     0.780000000
H    -4.756000000     1.051000000     1.095000000
H    -4.746000000     1.910000000    -0.151000000
O     3.553000000     1.993000000    -0.362000000
H     4.030000000     2.797000000    -0.566000000
H     4.229000000     1.315000000    -0.331000000
O     1.236000000    -4.113000000     4.430000000
H     1.252000000    -3.791000000     3.529000000
H     2.026000000    -4.648000000     4.508000000
O     3.668000000    -4.949000000     4.267000000
H     4.056000000    -4.129000000     3.962000000
H     4.205000000    -5.204000000     5.017000000
O    -4.741000000    -0.603000000     1.459000000
H    -5.134000000    -1.473000000     1.537000000
H    -3.923000000    -0.665000000     1.952000000
O     4.877000000    -2.425000000    -0.484000000
H     4.070000000    -2.854000000    -0.768000000
H     5.567000000    -3.059000000    -0.680000000
O    -2.828000000    -2.333000000    -1.787000000
H    -2.549000000    -1.418000000    -1.819000000
H    -2.013000000    -2.833000000    -1.838000000
O    -1.290000000    -0.782000000    -5.225000000
H    -2.241000000    -0.767000000    -5.337000000
H    -1.084000000     0.060000000    -4.818000000
O     0.409000000     0.769000000     5.487000000
H     1.253000000     1.204000000     5.368000000
H    -0.227000000     1.484000000     5.517000000
O     1.723000000     1.905000000    -5.456000000
H     2.510000000     1.908000000    -4.910000000
H     1.018000000     1.659000000    -4.859000000
O     4.543000000     0.444000000     3.133000000
H     4.683000000     0.605000000     2.200000000
H     3.608000000     0.603000000     3.265000000
O     5.650000000     0.173000000     0.075000000
H     6.549000000     0.243000000    -0.247000000
H     5.433000000    -0.754000000    -0.022000000
O    -4.376000000     2.798000000     3.282000000
H    -5.053000000     3.160000000     3.854000000
H    -4.798000000     2.726000000     2.426000000
O    -2.680000000     4.334000000     1.570000000
H    -3.306000000     3.648000000     1.802000000
H    -2.548000000     4.229000000     0.627000000
O    -1.325000000     0.748000000     7.955000000
H    -0.771000000     0.536000000     7.204000000
H    -0.713000000     0.842000000     8.685000000
O     2.393000000     2.118000000     3.783000000
H     2.800000000     2.960000000     3.986000000
H     1.919000000     2.271000000     2.966000000
O     6.498000000    -0.657000000    -3.030000000
H     5.593000000    -0.637000000    -3.342000000
H     6.616000000    -1.545000000    -2.694000000
O    -3.202000000     6.291000000    -4.277000000
H    -2.363000000     5.830000000    -4.295000000
H    -3.829000000     5.659000000    -4.630000000
O     1.286000000     2.366000000     1.393000000
H     1.963000000     2.755000000     0.840000000
H     0.796000000     1.793000000     0.803000000
O    -3.254000000    -1.405000000     3.824000000
H    -3.500000000    -0.594000000     4.269000000
H    -3.632000000    -2.099000000     4.365000000
O     3.418000000     1.840000000    -3.116000000
H     3.072000000     1.746000000    -2.229000000
H     3.741000000     0.968000000    -3.341000000
O    -1.629000000     3.134000000    -7.119000000
H    -1.597000000     3.717000000    -7.878000000
H    -0.753000000     3.189000000    -6.738000000
O     0.567000000    -4.557000000    -0.066000000
H     0.069000000    -3.797000000     0.236000000
H    -0.066000000    -5.275000000    -0.063000000
O    -3.075000000     2.643000000    -4.881000000
H    -2.595000000     2.714000000    -5.706000000
H    -2.394000000     2.580000000    -4.212000000
O    -4.317000000     0.843000000     5.350000000
H    -4.304000000     1.337000000     4.530000000
H    -4.264000000     1.511000000     6.033000000
O     2.495000000     2.983000000    -7.791000000
H     2.244000000     2.569000000    -8.616000000
H     2.220000000     2.361000000    -7.117000000
O     0.809000000     5.118000000    -6.291000000
H     1.510000000     5.752000000    -6.444000000
H     1.095000000     4.329000000    -6.750000000
O    -0.442000000    -6.038000000     5.356000000
H    -0.698000000    -5.920000000     6.271000000
H     0.209000000    -5.354000000     5.199000000
O    -2.139000000     4.287000000    -1.007000000
H    -1.904000000     4.921000000    -1.684000000
H    -1.897000000     3.439000000    -1.380000000
O    -0.103000000     5.087000000    -3.697000000
H     0.206000000     4.980000000    -4.597000000
H    -0.116000000     4.199000000    -3.342000000
O    -0.362000000     6.809000000    -1.631000000
H    -0.350000000     6.027000000    -2.183000000
H     0.174000000     7.445000000    -2.106000000
O     2.828000000    -4.285000000    -1.389000000
H     1.973000000    -4.191000000    -0.969000000
H     3.066000000    -5.201000000    -1.243000000
O     2.141000000    -3.290000000     1.954000000
H     2.253000000    -3.801000000     1.152000000
H     3.020000000    -2.971000000     2.159000000
O     3.912000000    -0.570000000    -4.329000000
H     3.893000000    -0.315000000    -5.252000000
H     3.407000000    -1.382000000    -4.294000000
O    -0.014000000    -3.142000000    -3.915000000
H     0.924000000    -2.953000000    -3.896000000
H    -0.407000000    -2.364000000    -4.311000000
O     3.002000000    -3.222000000    -4.082000000
H     3.090000000    -3.408000000    -3.148000000
H     3.529000000    -3.896000000    -4.511000000
O    -1.607000000    -2.581000000     2.066000000
H    -2.264000000    -2.363000000     2.727000000
H    -1.159000000    -1.753000000     1.892000000
O    -1.720000000    -5.529000000     2.591000000
H    -1.448000000    -4.618000000     2.476000000
H    -1.209000000    -5.838000000     3.339000000
O    -4.063000000     2.028000000    -2.003000000
H    -3.162000000     2.235000000    -2.248000000
H    -4.436000000     1.617000000    -2.783000000
O     0.455000000     5.086000000     2.318000000
H     1.041000000     4.594000000     1.742000000
H    -0.372000000     4.604000000     2.286000000
O     1.296000000    -0.898000000    -6.465000000
H     1.348000000    -0.227000000    -5.785000000
H     0.358000000    -1.054000000    -6.576000000
O     5.661000000    -0.427000000     5.355000000
H     6.438000000    -0.730000000     4.886000000
H     5.003000000    -0.300000000     4.672000000
