158
-3022.44098
C    -1.171000000    -0.405000000    -0.810000000
H    -2.118000000    -0.649000000    -1.284000000
C    -1.170000000     0.225000000     0.426000000
H    -2.112000000     0.676000000     0.727000000
C     0.000000000     0.542000000     1.119000000
H     0.005000000     1.016000000     2.057000000
C     1.195000000     0.272000000     0.481000000
H     2.122000000     0.594000000     0.950000000
C     1.230000000    -0.303000000    -0.802000000
H     2.186000000    -0.575000000    -1.241000000
C     0.032000000    -0.759000000    -1.401000000
C     0.119000000    -1.426000000    -2.773000000
O    -0.877000000    -1.986000000    -3.139000000
O     1.201000000    -1.606000000    -3.359000000
O    -6.975000000     1.938000000     1.885000000
H    -6.042000000     1.807000000     1.716000000
H    -7.093000000     2.887000000     1.850000000
O    -3.648000000     3.403000000    -1.544000000
H    -4.170000000     2.795000000    -1.020000000
H    -4.235000000     3.677000000    -2.248000000
O    -4.790000000    -2.723000000    -5.738000000
H    -4.957000000    -3.202000000    -4.926000000
H    -4.057000000    -2.143000000    -5.528000000
O     0.622000000    -2.154000000    -5.854000000
H     0.866000000    -1.788000000    -5.004000000
H     0.229000000    -3.002000000    -5.646000000
O    -2.665000000    -1.341000000    -4.957000000
H    -1.874000000    -0.875000000    -5.231000000
H    -2.361000000    -1.956000000    -4.289000000
O     1.722000000     0.774000000     5.941000000
H     2.089000000    -0.103000000     6.045000000
H     1.213000000     0.727000000     5.132000000
O     2.487000000    -0.709000000    -7.148000000
H     3.130000000    -0.838000000    -6.450000000
H     1.758000000    -1.282000000    -6.911000000
O     4.617000000    -2.552000000     1.691000000
H     5.356000000    -1.952000000     1.795000000
H     4.504000000    -2.631000000     0.744000000
O    -1.598000000    -2.121000000     4.713000000
H    -1.139000000    -1.281000000     4.698000000
H    -0.934000000    -2.761000000     4.460000000
O    -5.275000000    -4.834000000    -1.053000000
H    -4.404000000    -4.488000000    -1.247000000
H    -5.505000000    -4.446000000    -0.209000000
O    -1.119000000     1.413000000    -6.850000000
H    -2.053000000     1.507000000    -6.665000000
H    -0.985000000     0.469000000    -6.935000000
O    -3.780000000     1.428000000    -6.066000000
H    -4.735000000     1.452000000    -6.006000000
H    -3.481000000     1.530000000    -5.162000000
O    -2.740000000    -3.330000000    -1.443000000
H    -2.553000000    -4.249000000    -1.634000000
H    -2.055000000    -2.846000000    -1.902000000
O    -0.782000000    -1.266000000    -8.072000000
H    -0.350000000    -1.565000000    -7.272000000
H    -0.403000000    -1.805000000    -8.765000000
O     2.872000000    -4.211000000     2.859000000
H     3.471000000    -3.572000000     2.472000000
H     3.226000000    -5.060000000     2.596000000
O     5.999000000     2.614000000     4.194000000
H     6.445000000     2.118000000     4.880000000
H     5.530000000     1.952000000     3.686000000
O     0.512000000     3.397000000     4.460000000
H     0.444000000     4.308000000     4.747000000
H     1.291000000     3.379000000     3.904000000
O     3.657000000     4.250000000     2.866000000
H     3.731000000     3.692000000     3.639000000
H     4.467000000     4.096000000     2.380000000
O     3.490000000     2.045000000    -2.181000000
H     3.092000000     2.884000000    -1.947000000
H     4.363000000     2.275000000    -2.500000000
O     4.684000000     0.516000000    -0.361000000
H     5.192000000    -0.071000000    -0.921000000
H     4.048000000     0.920000000    -0.952000000
O     4.891000000    -3.320000000    -0.964000000
H     5.321000000    -2.510000000    -1.239000000
H     4.220000000    -3.473000000    -1.629000000
O    -0.919000000    -5.749000000    -6.986000000
H    -0.486000000    -6.490000000    -6.563000000
H    -1.146000000    -5.161000000    -6.265000000
O    -1.217000000     3.838000000    -0.195000000
H    -1.180000000     3.398000000     0.654000000
H    -2.101000000     3.665000000    -0.517000000
O     3.203000000     0.118000000    -4.145000000
H     3.304000000     0.851000000    -3.539000000
H     2.429000000    -0.349000000    -3.830000000
O     4.777000000     0.956000000     2.305000000
H     4.519000000     1.052000000     1.388000000
H     5.356000000     0.194000000     2.313000000
O     6.379000000    -1.087000000    -1.677000000
H     6.369000000    -1.002000000    -2.631000000
H     7.156000000    -0.600000000    -1.402000000
O    -2.069000000     3.373000000     2.875000000
H    -1.731000000     4.264000000     2.969000000
H    -1.345000000     2.812000000     3.154000000
O    -5.980000000    -0.529000000    -3.720000000
H    -5.857000000     0.123000000    -3.030000000
H    -5.119000000    -0.609000000    -4.129000000
O    -0.849000000    -3.116000000     1.004000000
H    -1.040000000    -2.213000000     0.751000000
H    -0.284000000    -3.036000000     1.772000000
O    -0.851000000    -4.209000000    -4.333000000
H    -1.034000000    -4.935000000    -3.737000000
H    -0.982000000    -3.424000000    -3.802000000
O    -5.000000000    -0.744000000     5.126000000
H    -4.566000000    -0.023000000     5.582000000
H    -5.383000000    -1.274000000     5.825000000
O     5.948000000    -0.928000000    -4.335000000
H     6.237000000    -0.684000000    -5.214000000
H     5.089000000    -0.515000000    -4.243000000
O    -0.253000000     2.288000000    -2.516000000
H     0.027000000     1.722000000    -1.797000000
H     0.296000000     3.068000000    -2.435000000
O    -3.544000000     1.047000000     6.719000000
H    -3.274000000     1.951000000     6.880000000
H    -3.967000000     0.775000000     7.533000000
O     3.591000000     2.649000000     5.461000000
H     3.091000000     1.949000000     5.881000000
H     4.506000000     2.423000000     5.629000000
O    -2.616000000     1.550000000    -3.594000000
H    -1.711000000     1.606000000    -3.288000000
H    -3.093000000     2.174000000    -3.047000000
O     1.266000000    -4.933000000     0.496000000
H     0.386000000    -4.586000000     0.349000000
H     1.548000000    -4.528000000     1.316000000
O     2.450000000    -6.458000000    -1.631000000
H     1.802000000    -6.031000000    -1.071000000
H     2.974000000    -5.739000000    -1.983000000
O    -1.966000000    -5.828000000    -1.688000000
H    -2.505000000    -6.319000000    -2.308000000
H    -1.521000000    -6.500000000    -1.172000000
O     3.266000000    -3.346000000    -3.122000000
H     3.599000000    -3.356000000    -4.020000000
H     2.557000000    -2.703000000    -3.137000000
O    -3.400000000    -1.625000000     2.891000000
H    -2.651000000    -1.644000000     3.488000000
H    -4.155000000    -1.476000000     3.460000000
O     4.933000000    -3.487000000    -5.205000000
H     5.351000000    -2.680000000    -4.903000000
H     5.556000000    -4.178000000    -4.980000000
O    -4.998000000     3.682000000     4.380000000
H    -4.356000000     4.357000000     4.599000000
H    -4.473000000     2.904000000     4.194000000
O    -1.120000000     6.013000000     3.269000000
H    -0.282000000     6.410000000     3.506000000
H    -1.507000000     6.626000000     2.643000000
O    -4.684000000    -2.154000000     0.309000000
H    -4.381000000    -1.900000000     1.181000000
H    -3.914000000    -2.542000000    -0.107000000
O    -1.144000000     1.052000000     4.914000000
H    -1.764000000     1.159000000     5.636000000
H    -0.639000000     1.865000000     4.910000000
O    -4.206000000     2.758000000     1.476000000
H    -3.447000000     2.794000000     2.058000000
H    -4.529000000     3.658000000     1.448000000
O    -5.047000000     0.468000000    -0.506000000
H    -4.415000000     0.715000000     0.169000000
H    -5.083000000    -0.488000000    -0.463000000
