158
-3011.49381
C    -1.129000000    -0.267000000    -0.960000000
H    -1.904000000    -0.339000000    -1.718000000
C    -1.217000000     0.655000000     0.120000000
H    -2.109000000     1.181000000     0.448000000
C    -0.136000000     0.784000000     0.935000000
H    -0.155000000     1.422000000     1.783000000
C     1.044000000     0.046000000     0.717000000
H     1.939000000     0.228000000     1.307000000
C     1.160000000    -0.881000000    -0.315000000
H     2.056000000    -1.473000000    -0.481000000
C     0.048000000    -0.948000000    -1.230000000
C     0.177000000    -1.848000000    -2.487000000
O    -0.736000000    -1.883000000    -3.281000000
O     1.127000000    -2.636000000    -2.609000000
O    -2.926000000     1.956000000    -4.776000000
H    -3.548000000     1.498000000    -4.210000000
H    -2.844000000     2.826000000    -4.387000000
O    -3.662000000    -1.979000000    -7.518000000
H    -4.575000000    -2.118000000    -7.770000000
H    -3.589000000    -2.379000000    -6.651000000
O    -0.931000000    -2.504000000    -8.053000000
H    -1.802000000    -2.451000000    -7.660000000
H    -0.672000000    -3.419000000    -7.940000000
O    -4.919000000    -1.328000000    -4.618000000
H    -4.843000000    -0.699000000    -5.335000000
H    -4.258000000    -1.050000000    -3.984000000
O     3.126000000    -0.187000000     4.595000000
H     2.332000000     0.130000000     5.026000000
H     2.889000000    -1.053000000     4.265000000
O     1.891000000    -1.739000000    -7.270000000
H     2.143000000    -1.734000000    -6.346000000
H     0.955000000    -1.936000000    -7.262000000
O     4.906000000    -0.324000000    -0.661000000
H     5.319000000     0.496000000    -0.392000000
H     4.151000000    -0.414000000    -0.080000000
O    -0.431000000    -2.213000000     2.498000000
H    -0.433000000    -1.457000000     1.911000000
H     0.496000000    -2.406000000     2.637000000
O    -6.697000000     1.183000000    -3.074000000
H    -6.090000000     0.494000000    -3.344000000
H    -6.318000000     1.988000000    -3.428000000
O     2.555000000    -2.408000000     3.003000000
H     3.276000000    -2.531000000     2.386000000
H     2.463000000    -3.257000000     3.436000000
O    -2.849000000    -3.410000000    -2.368000000
H    -2.972000000    -4.076000000    -3.044000000
H    -2.122000000    -2.875000000    -2.689000000
O    -6.113000000     0.697000000     1.807000000
H    -5.432000000     0.055000000     2.008000000
H    -5.655000000     1.393000000     1.337000000
O     2.907000000    -7.369000000    -3.619000000
H     3.261000000    -7.790000000    -2.835000000
H     2.589000000    -6.520000000    -3.311000000
O     4.343000000    -2.821000000     0.782000000
H     4.982000000    -2.184000000     0.462000000
H     4.815000000    -3.653000000     0.786000000
O     2.773000000     3.334000000     5.841000000
H     2.343000000     3.046000000     6.646000000
H     3.564000000     2.798000000     5.787000000
O     5.191000000     3.449000000     1.849000000
H     4.427000000     3.135000000     2.333000000
H     5.937000000     3.219000000     2.402000000
O    -3.310000000    -5.765000000    -5.581000000
H    -4.225000000    -5.507000000    -5.466000000
H    -2.809000000    -5.070000000    -5.154000000
O    -2.561000000     4.161000000     5.427000000
H    -1.949000000     4.178000000     6.163000000
H    -2.616000000     5.072000000     5.140000000
O    -1.267000000    -6.268000000    -3.118000000
H    -1.870000000    -6.609000000    -2.458000000
H    -0.435000000    -6.170000000    -2.654000000
O    -0.817000000     5.981000000    -0.139000000
H    -0.140000000     5.770000000     0.503000000
H    -0.489000000     6.761000000    -0.586000000
O    -0.191000000     0.838000000     7.130000000
H    -0.216000000     0.165000000     6.449000000
H     0.673000000     0.740000000     7.531000000
O    -0.581000000     4.193000000     3.342000000
H    -0.575000000     4.990000000     3.871000000
H     0.147000000     4.305000000     2.731000000
O     2.281000000    -5.950000000     0.290000000
H     2.225000000    -5.778000000     1.230000000
H     1.373000000    -5.914000000    -0.013000000
O     2.857000000    -1.950000000    -4.695000000
H     3.568000000    -1.646000000    -4.131000000
H     2.150000000    -2.175000000    -4.090000000
O     3.909000000     5.982000000     0.285000000
H     3.574000000     6.326000000     1.113000000
H     3.777000000     5.036000000     0.347000000
O     1.346000000     4.239000000     1.778000000
H     1.344000000     4.179000000     0.823000000
H     1.885000000     3.502000000     2.064000000
O     4.869000000    -0.953000000    -3.248000000
H     5.295000000    -0.278000000    -3.777000000
H     4.867000000    -0.595000000    -2.360000000
O     0.702000000     3.141000000    -0.538000000
H     0.676000000     2.330000000    -0.031000000
H    -0.208000000     3.295000000    -0.791000000
O    -1.827000000    -4.797000000     0.091000000
H    -2.230000000    -4.248000000    -0.582000000
H    -0.899000000    -4.565000000     0.065000000
O    -1.831000000    -3.315000000    -5.287000000
H    -1.055000000    -3.634000000    -5.747000000
H    -1.495000000    -2.661000000    -4.674000000
O    -5.175000000     2.676000000     5.060000000
H    -4.814000000     2.793000000     4.181000000
H    -4.542000000     3.103000000     5.638000000
O     4.137000000    -4.595000000    -1.363000000
H     3.737000000    -3.777000000    -1.065000000
H     3.453000000    -5.254000000    -1.242000000
O    -3.816000000    -0.362000000     2.799000000
H    -3.161000000     0.330000000     2.710000000
H    -3.711000000    -0.676000000     3.697000000
O     2.674000000     6.909000000     2.706000000
H     2.161000000     6.157000000     3.005000000
H     3.137000000     7.208000000     3.489000000
O    -5.077000000     2.621000000     0.318000000
H    -5.018000000     3.300000000    -0.354000000
H    -4.356000000     2.814000000     0.917000000
O     0.384000000     2.263000000    -5.560000000
H     0.174000000     2.639000000    -4.705000000
H     0.137000000     1.341000000    -5.483000000
O    -1.169000000     1.772000000     4.511000000
H    -0.888000000     2.585000000     4.091000000
H    -1.866000000     2.040000000     5.110000000
O     3.048000000     2.170000000     3.018000000
H     2.768000000     2.606000000     3.823000000
H     3.220000000     1.266000000     3.283000000
O    -1.105000000    -0.133000000    -5.211000000
H    -0.951000000    -0.735000000    -4.483000000
H    -1.623000000     0.576000000    -4.831000000
O     0.777000000    -3.800000000    -0.221000000
H     0.863000000    -3.367000000    -1.070000000
H     1.628000000    -3.677000000     0.199000000
O     0.284000000    -4.776000000    -6.807000000
H    -0.013000000    -5.683000000    -6.884000000
H     0.952000000    -4.800000000    -6.122000000
O     1.743000000    -4.700000000    -4.104000000
H     2.492000000    -4.359000000    -4.594000000
H     1.377000000    -3.933000000    -3.664000000
O    -3.745000000    -2.791000000     1.533000000
H    -2.871000000    -2.945000000     1.892000000
H    -3.823000000    -1.838000000     1.495000000
O    -3.183000000     3.048000000     2.280000000
H    -3.569000000     3.878000000     2.560000000
H    -2.305000000     3.051000000     2.661000000
O    -4.647000000    -1.303000000    -1.271000000
H    -5.172000000    -1.667000000    -0.558000000
H    -3.985000000    -1.972000000    -1.446000000
O     0.257000000    -0.634000000     4.758000000
H    -0.085000000     0.203000000     4.444000000
H    -0.080000000    -1.279000000     4.136000000
O    -1.899000000     3.422000000    -1.651000000
H    -2.323000000     2.564000000    -1.687000000
H    -2.552000000     4.027000000    -2.002000000
O    -3.793000000     1.390000000    -2.188000000
H    -4.301000000     2.063000000    -1.736000000
H    -4.020000000     0.576000000    -1.738000000
