158
-3073.14230
C    -0.680000000    -1.321000000     0.209000000
H    -1.223000000    -2.257000000     0.302000000
C    -1.133000000    -0.106000000     0.704000000
H    -2.144000000    -0.028000000     1.096000000
C    -0.437000000     1.096000000     0.380000000
H    -0.970000000     1.989000000     0.573000000
C     0.709000000     1.016000000    -0.404000000
H     1.344000000     1.880000000    -0.582000000
C     1.255000000    -0.233000000    -0.726000000
H     2.232000000    -0.275000000    -1.201000000
C     0.544000000    -1.407000000    -0.427000000
C     1.190000000    -2.751000000    -0.770000000
O     0.586000000    -3.804000000    -0.691000000
O     2.211000000    -2.672000000    -1.472000000
O     6.463000000    -2.924000000     0.440000000
H     6.458000000    -3.479000000     1.220000000
H     6.005000000    -2.128000000     0.710000000
O     4.102000000    -2.202000000    -6.121000000
H     3.756000000    -2.950000000    -6.608000000
H     4.248000000    -2.539000000    -5.237000000
O    -3.425000000     1.756000000    -0.894000000
H    -2.953000000     1.126000000    -1.439000000
H    -3.763000000     1.236000000    -0.165000000
O     4.993000000    -6.863000000    -1.157000000
H     4.824000000    -5.930000000    -1.027000000
H     4.280000000    -7.302000000    -0.695000000
O    -2.569000000     4.356000000    -0.587000000
H    -2.901000000     3.475000000    -0.760000000
H    -2.730000000     4.836000000    -1.399000000
O     5.118000000     2.024000000     1.398000000
H     5.283000000     2.152000000     2.332000000
H     4.430000000     2.656000000     1.187000000
O    -1.989000000    -4.736000000     0.292000000
H    -1.059000000    -4.742000000     0.069000000
H    -2.013000000    -4.941000000     1.226000000
O     2.512000000     2.347000000     2.542000000
H     2.693000000     2.539000000     1.622000000
H     1.746000000     2.881000000     2.752000000
O    -4.191000000    -5.314000000    -0.921000000
H    -3.977000000    -5.121000000    -1.834000000
H    -3.390000000    -5.109000000    -0.439000000
O     3.518000000     3.739000000     0.286000000
H     2.744000000     3.830000000    -0.271000000
H     4.051000000     4.507000000     0.082000000
O    -4.558000000    -0.746000000     0.325000000
H    -4.725000000    -1.647000000     0.602000000
H    -4.391000000    -0.812000000    -0.615000000
O     0.346000000     1.550000000     4.994000000
H    -0.445000000     2.071000000     5.132000000
H     0.810000000     1.592000000     5.830000000
O     0.090000000    -7.813000000    -0.709000000
H    -0.374000000    -7.843000000     0.127000000
H    -0.111000000    -8.651000000    -1.125000000
O    -3.231000000     1.299000000     4.672000000
H    -2.649000000     1.916000000     4.230000000
H    -3.608000000     0.776000000     3.964000000
O    -3.281000000    -4.589000000    -3.212000000
H    -3.519000000    -5.257000000    -3.856000000
H    -2.350000000    -4.431000000    -3.364000000
O     4.039000000     0.809000000    -4.308000000
H     4.792000000     0.837000000    -4.899000000
H     3.961000000    -0.113000000    -4.063000000
O     2.356000000    -1.956000000     2.629000000
H     2.253000000    -2.841000000     2.278000000
H     1.492000000    -1.735000000     2.978000000
O    -0.134000000     5.133000000    -0.179000000
H    -0.360000000     6.050000000    -0.024000000
H    -0.977000000     4.683000000    -0.225000000
O     3.492000000     1.632000000     5.056000000
H     2.958000000     2.127000000     5.678000000
H     3.046000000     1.744000000     4.216000000
O    -1.030000000     3.892000000     6.003000000
H    -0.203000000     4.349000000     5.853000000
H    -1.457000000     3.882000000     5.147000000
O     1.776000000    -3.427000000    -4.245000000
H     1.493000000    -2.693000000    -4.790000000
H     2.173000000    -3.016000000    -3.477000000
O     1.719000000     4.201000000    -2.014000000
H     1.517000000     3.467000000    -2.594000000
H     0.868000000     4.484000000    -1.682000000
O    -4.329000000    -3.081000000     3.483000000
H    -4.412000000    -3.658000000     4.242000000
H    -3.393000000    -2.888000000     3.429000000
O    -4.775000000     6.237000000     0.364000000
H    -4.041000000     5.845000000     0.837000000
H    -4.594000000     7.177000000     0.378000000
O    -1.803000000    -2.149000000     3.881000000
H    -1.343000000    -1.456000000     3.408000000
H    -1.133000000    -2.813000000     4.044000000
O     4.146000000    -1.732000000    -3.000000000
H     4.995000000    -1.996000000    -2.644000000
H     3.535000000    -1.847000000    -2.273000000
O     4.096000000    -4.429000000    -0.897000000
H     4.820000000    -3.814000000    -0.784000000
H     3.382000000    -3.898000000    -1.250000000
O    -0.535000000    -7.093000000    -4.782000000
H     0.258000000    -7.418000000    -5.209000000
H    -0.244000000    -6.824000000    -3.910000000
O     2.918000000     6.621000000    -2.241000000
H     2.628000000     5.731000000    -2.442000000
H     2.827000000     6.693000000    -1.291000000
O     0.264000000    -0.485000000     3.296000000
H     0.415000000     0.211000000     3.935000000
H     0.024000000    -0.025000000     2.492000000
O     4.807000000    -0.878000000     1.287000000
H     4.840000000     0.040000000     1.555000000
H     4.161000000    -1.275000000     1.872000000
O    -5.257000000    -3.191000000     0.917000000
H    -4.684000000    -3.748000000     0.391000000
H    -4.869000000    -3.206000000     1.792000000
O     1.097000000    -6.058000000    -2.422000000
H     0.812000000    -6.621000000    -1.701000000
H     1.200000000    -5.194000000    -2.024000000
O    -3.887000000    -1.970000000    -2.311000000
H    -3.849000000    -1.656000000    -3.214000000
H    -3.711000000    -2.909000000    -2.375000000
O     5.612000000     0.963000000    -1.259000000
H     5.170000000     1.393000000    -0.527000000
H     5.009000000     1.063000000    -1.995000000
O     3.485000000    -6.630000000    -3.616000000
H     2.598000000    -6.679000000    -3.260000000
H     4.051000000    -6.606000000    -2.844000000
O     1.672000000     1.950000000    -3.866000000
H     2.014000000     2.800000000    -4.141000000
H     2.391000000     1.339000000    -4.029000000
O    -1.668000000     0.620000000    -2.895000000
H    -1.880000000    -0.313000000    -2.895000000
H    -0.720000000     0.650000000    -2.768000000
O    -1.943000000     3.364000000     3.469000000
H    -1.237000000     3.460000000     2.830000000
H    -2.688000000     3.817000000     3.073000000
O     0.351000000     4.630000000     2.537000000
H     0.271000000     5.038000000     1.675000000
H     0.691000000     5.326000000     3.100000000
O    -5.636000000     4.911000000    -1.829000000
H    -4.865000000     5.335000000    -1.452000000
H    -6.378000000     5.388000000    -1.458000000
O    -0.945000000    -3.093000000    -3.362000000
H    -0.304000000    -3.430000000    -3.988000000
H    -0.567000000    -3.288000000    -2.504000000
O    -3.480000000     5.701000000     2.446000000
H    -4.404000000     5.818000000     2.667000000
H    -3.034000000     6.421000000     2.891000000
O     6.718000000    -1.847000000    -2.166000000
H     6.724000000    -2.501000000    -1.467000000
H     6.803000000    -1.009000000    -1.712000000
O    -4.865000000     0.124000000     2.795000000
H    -5.667000000    -0.340000000     3.034000000
H    -4.588000000    -0.284000000     1.974000000
O     1.666000000    -4.454000000     1.884000000
H     2.234000000    -5.220000000     1.800000000
H     1.373000000    -4.274000000     0.990000000
O    -2.434000000     5.694000000    -3.154000000
H    -1.723000000     6.056000000    -3.683000000
H    -2.900000000     5.107000000    -3.749000000
O    -4.708000000     2.700000000    -3.314000000
H    -4.407000000     2.195000000    -2.559000000
H    -4.641000000     3.613000000    -3.034000000
