158
-2992.01200
C     0.756000000     0.255000000     1.248000000
H     1.339000000     0.547000000     2.117000000
C     0.775000000     1.031000000     0.105000000
H     1.532000000     1.811000000     0.109000000
C     0.110000000     0.681000000    -1.031000000
H     0.170000000     1.296000000    -1.882000000
C    -0.771000000    -0.438000000    -0.981000000
H    -1.348000000    -0.683000000    -1.869000000
C    -0.823000000    -1.224000000     0.221000000
H    -1.473000000    -2.091000000     0.299000000
C    -0.134000000    -0.815000000     1.314000000
C    -0.352000000    -1.644000000     2.526000000
O    -1.371000000    -2.221000000     2.735000000
O     0.572000000    -1.712000000     3.353000000
O     5.040000000     0.918000000    -4.874000000
H     4.275000000     0.682000000    -5.399000000
H     5.016000000     1.874000000    -4.832000000
O    -4.428000000     0.903000000     4.075000000
H    -4.402000000     0.017000000     3.713000000
H    -3.974000000     1.440000000     3.427000000
O    -4.037000000    -4.815000000     0.090000000
H    -4.940000000    -4.800000000    -0.225000000
H    -3.519000000    -5.065000000    -0.675000000
O    -2.833000000     3.210000000    -3.275000000
H    -2.314000000     2.441000000    -3.511000000
H    -2.221000000     3.777000000    -2.806000000
O     3.370000000    -1.418000000     2.734000000
H     2.430000000    -1.308000000     2.878000000
H     3.739000000    -1.495000000     3.613000000
O    -2.564000000     1.891000000    -7.579000000
H    -1.859000000     1.710000000    -6.957000000
H    -2.970000000     2.694000000    -7.254000000
O     1.145000000    -1.653000000     6.440000000
H     1.497000000    -0.819000000     6.751000000
H     1.024000000    -1.526000000     5.499000000
O    -1.791000000     4.347000000     0.993000000
H    -1.643000000     4.898000000     0.225000000
H    -1.123000000     4.626000000     1.620000000
O    -2.263000000     0.641000000    -4.029000000
H    -2.982000000     0.265000000    -4.538000000
H    -1.569000000    -0.017000000    -4.073000000
O     2.139000000    -1.052000000    -2.182000000
H     1.745000000    -0.492000000    -1.513000000
H     1.523000000    -1.778000000    -2.280000000
O    -0.485000000    -6.562000000     1.163000000
H    -1.419000000    -6.766000000     1.125000000
H    -0.452000000    -5.639000000     1.417000000
O    -5.717000000    -3.497000000     5.548000000
H    -5.398000000    -3.070000000     4.753000000
H    -5.001000000    -4.073000000     5.815000000
O    -1.964000000     1.412000000     6.460000000
H    -2.474000000     1.476000000     5.653000000
H    -1.157000000     0.969000000     6.199000000
O    -3.364000000    -4.867000000     5.587000000
H    -3.329000000    -5.508000000     4.878000000
H    -2.870000000    -4.117000000     5.256000000
O    -1.103000000    -2.889000000     5.551000000
H    -0.528000000    -2.375000000     6.118000000
H    -1.067000000    -2.442000000     4.705000000
O    -0.130000000    -5.506000000     6.367000000
H    -0.581000000    -4.668000000     6.468000000
H    -0.613000000    -5.956000000     5.674000000
O     4.461000000    -1.589000000    -3.444000000
H     3.638000000    -1.543000000    -2.957000000
H     4.655000000    -0.681000000    -3.675000000
O    -4.680000000    -0.792000000     0.972000000
H    -4.113000000    -0.087000000     0.658000000
H    -5.519000000    -0.635000000     0.540000000
O    -4.553000000    -1.968000000    -1.886000000
H    -3.920000000    -2.684000000    -1.944000000
H    -4.953000000    -2.073000000    -1.022000000
O     4.672000000     3.025000000     4.376000000
H     4.882000000     3.820000000     4.866000000
H     3.877000000     3.247000000     3.890000000
O     1.289000000     3.104000000    -8.115000000
H     1.099000000     2.881000000    -7.204000000
H     1.638000000     3.995000000    -8.076000000
O    -5.208000000     2.781000000    -3.922000000
H    -4.315000000     3.118000000    -3.841000000
H    -5.252000000     2.064000000    -3.289000000
O     0.518000000     2.324000000    -5.567000000
H     0.591000000     2.993000000    -4.886000000
H     1.073000000     1.607000000    -5.259000000
O    -0.745000000    -5.986000000    -1.628000000
H    -1.606000000    -6.326000000    -1.871000000
H    -0.652000000    -6.209000000    -0.702000000
O     4.517000000     2.195000000     0.287000000
H     4.995000000     2.466000000     1.071000000
H     3.917000000     2.919000000     0.110000000
O    -3.038000000     1.424000000    -0.299000000
H    -3.175000000     1.460000000    -1.246000000
H    -2.167000000     1.041000000    -0.198000000
O    -3.439000000    -2.955000000    -5.717000000
H    -2.619000000    -2.964000000    -5.224000000
H    -3.843000000    -2.116000000    -5.495000000
O    -2.518000000     6.798000000    -2.375000000
H    -2.784000000     7.669000000    -2.082000000
H    -1.744000000     6.595000000    -1.850000000
O    -2.619000000     2.027000000     2.217000000
H    -3.004000000     1.750000000     1.386000000
H    -1.978000000     2.695000000     1.973000000
O     2.283000000     0.303000000    -5.037000000
H     2.053000000    -0.208000000    -5.813000000
H     2.386000000    -0.348000000    -4.344000000
O     3.133000000     4.503000000    -1.071000000
H     3.876000000     4.979000000    -1.441000000
H     3.166000000     4.697000000    -0.134000000
O    -4.061000000    -1.857000000     3.524000000
H    -4.466000000    -1.590000000     2.699000000
H    -3.123000000    -1.875000000     3.336000000
O    -0.768000000    -1.458000000    -4.588000000
H    -0.490000000    -2.022000000    -3.866000000
H    -0.585000000    -1.970000000    -5.376000000
O     0.290000000     0.804000000     5.186000000
H     0.517000000     0.395000000     4.351000000
H     1.080000000     1.280000000     5.441000000
O    -2.902000000    -4.554000000     2.623000000
H    -2.401000000    -3.765000000     2.831000000
H    -3.404000000    -4.319000000     1.843000000
O    -2.212000000    -3.528000000    -1.674000000
H    -1.485000000    -3.151000000    -1.178000000
H    -1.869000000    -4.355000000    -2.011000000
O     4.497000000    -1.616000000     5.192000000
H     5.196000000    -1.126000000     4.758000000
H     4.418000000    -1.206000000     6.054000000
O    -0.428000000     6.413000000    -0.575000000
H    -0.525000000     6.790000000     0.299000000
H     0.357000000     6.831000000    -0.930000000
O     4.258000000    -0.644000000     0.043000000
H     4.486000000     0.278000000    -0.078000000
H     3.958000000    -0.699000000     0.951000000
O     1.342000000    -4.311000000     3.728000000
H     1.043000000    -3.409000000     3.609000000
H     1.058000000    -4.542000000     4.613000000
O     0.717000000    -3.644000000    -1.892000000
H     0.257000000    -4.425000000    -2.200000000
H     0.889000000    -3.817000000    -0.966000000
O     0.318000000     4.733000000     2.571000000
H     0.452000000     5.628000000     2.883000000
H     0.240000000     4.211000000     3.370000000
O     2.777000000     4.288000000     1.761000000
H     2.903000000     5.115000000     2.225000000
H     1.828000000     4.164000000     1.746000000
O    -0.675000000     4.126000000    -1.878000000
H    -0.505000000     3.578000000    -1.112000000
H    -0.286000000     4.972000000    -1.658000000
O     1.260000000    -3.776000000     0.975000000
H     1.895000000    -3.063000000     1.042000000
H     1.327000000    -4.236000000     1.812000000
O     5.478000000     2.632000000    -2.318000000
H     4.761000000     2.371000000    -1.741000000
H     6.049000000     3.166000000    -1.765000000
O    -2.275000000    -6.926000000     3.951000000
H    -2.379000000    -6.495000000     3.102000000
H    -3.115000000    -7.358000000     4.104000000
O     2.136000000     4.146000000    -3.669000000
H     1.469000000     4.828000000    -3.590000000
H     2.386000000     3.949000000    -2.766000000
