158
-3045.29533
C     1.322000000    -0.288000000     0.451000000
H     2.189000000    -0.506000000     1.070000000
C     0.329000000     0.456000000     1.114000000
H     0.653000000     0.780000000     2.099000000
C    -0.867000000     0.702000000     0.594000000
H    -1.572000000     1.235000000     1.154000000
C    -1.084000000     0.243000000    -0.706000000
H    -2.054000000     0.374000000    -1.178000000
C    -0.112000000    -0.508000000    -1.403000000
H    -0.320000000    -0.891000000    -2.399000000
C     1.096000000    -0.867000000    -0.780000000
C     2.064000000    -1.755000000    -1.476000000
O     3.172000000    -1.972000000    -1.038000000
O     1.657000000    -2.336000000    -2.477000000
O     6.617000000    -3.865000000    -2.170000000
H     6.125000000    -4.670000000    -2.333000000
H     6.256000000    -3.233000000    -2.792000000
O     2.721000000     4.773000000    -0.556000000
H     2.296000000     4.001000000    -0.184000000
H     2.832000000     4.562000000    -1.483000000
O    -4.097000000    -0.802000000    -5.148000000
H    -4.690000000    -0.541000000    -4.443000000
H    -3.284000000    -0.331000000    -4.964000000
O     3.503000000    -5.201000000    -4.415000000
H     2.591000000    -5.123000000    -4.135000000
H     3.920000000    -5.722000000    -3.729000000
O     5.559000000    -2.404000000    -0.076000000
H     4.713000000    -2.224000000    -0.485000000
H     5.951000000    -3.082000000    -0.625000000
O     5.228000000    -1.354000000    -2.997000000
H     4.533000000    -1.376000000    -2.339000000
H     4.921000000    -1.940000000    -3.689000000
O    -5.954000000     0.905000000     0.953000000
H    -5.607000000     0.311000000     0.286000000
H    -6.854000000     0.609000000     1.091000000
O    -0.100000000    -6.705000000    -4.009000000
H    -0.939000000    -6.543000000    -4.442000000
H     0.247000000    -5.833000000    -3.824000000
O     0.904000000     2.618000000    -1.323000000
H     0.300000000     3.244000000    -0.923000000
H     0.533000000     1.761000000    -1.115000000
O    -5.558000000    -2.347000000    -3.254000000
H    -6.178000000    -2.329000000    -3.983000000
H    -4.701000000    -2.440000000    -3.671000000
O     3.420000000     1.483000000    -2.615000000
H     3.922000000     1.465000000    -1.800000000
H     2.572000000     1.852000000    -2.366000000
O    -3.419000000    -1.791000000     1.103000000
H    -2.800000000    -2.248000000     0.534000000
H    -2.874000000    -1.206000000     1.629000000
O    -0.004000000     4.551000000     5.428000000
H     0.349000000     5.345000000     5.025000000
H     0.496000000     4.451000000     6.238000000
O    -5.088000000    -0.813000000    -0.812000000
H    -4.460000000    -1.297000000    -0.275000000
H    -5.346000000    -1.433000000    -1.494000000
O    -3.825000000     0.759000000     6.264000000
H    -4.017000000    -0.154000000     6.479000000
H    -2.873000000     0.828000000     6.343000000
O     2.229000000    -0.417000000     5.835000000
H     2.651000000     0.366000000     6.189000000
H     2.380000000    -1.091000000     6.497000000
O    -0.046000000    -1.006000000     4.750000000
H     0.162000000    -1.936000000     4.841000000
H     0.781000000    -0.557000000     4.929000000
O    -1.176000000    -0.099000000    -4.734000000
H    -1.212000000    -1.047000000    -4.861000000
H    -0.275000000     0.073000000    -4.462000000
O     0.953000000    -4.333000000    -3.927000000
H     1.335000000    -3.922000000    -3.152000000
H     0.980000000    -3.650000000    -4.598000000
O    -0.911000000     2.509000000     3.935000000
H    -0.142000000     2.341000000     3.389000000
H    -0.694000000     3.309000000     4.414000000
O    -5.800000000     2.505000000     3.246000000
H    -5.976000000     1.687000000     2.780000000
H    -4.991000000     2.336000000     3.729000000
O    -1.182000000     3.996000000     0.051000000
H    -1.361000000     4.742000000    -0.521000000
H    -2.027000000     3.791000000     0.450000000
O    -7.475000000     4.055000000     1.672000000
H    -8.196000000     3.948000000     2.293000000
H    -6.776000000     3.501000000     2.019000000
O     3.772000000    -0.943000000     3.235000000
H     3.125000000    -1.141000000     3.912000000
H     3.853000000     0.010000000     3.252000000
O    -3.506000000     2.917000000     4.599000000
H    -2.677000000     2.759000000     4.147000000
H    -3.689000000     2.096000000     5.057000000
O     2.665000000    -1.524000000    -4.833000000
H     2.735000000    -0.571000000    -4.894000000
H     2.155000000    -1.676000000    -4.037000000
O    -5.044000000     5.311000000     3.377000000
H    -5.836000000     5.362000000     2.842000000
H    -4.862000000     4.374000000     3.447000000
O     2.368000000    -4.872000000    -1.397000000
H     2.238000000    -3.924000000    -1.436000000
H     2.086000000    -5.116000000    -0.515000000
O     1.371000000    -3.015000000     2.677000000
H     2.009000000    -3.700000000     2.478000000
H     1.759000000    -2.215000000     2.321000000
O     3.115000000     2.292000000     2.630000000
H     2.305000000     2.794000000     2.714000000
H     3.358000000     2.381000000     1.708000000
O     1.386000000     0.851000000    -4.283000000
H     1.795000000     1.026000000    -5.130000000
H     2.052000000     1.096000000    -3.640000000
O    -0.926000000    -3.284000000     1.061000000
H    -1.456000000    -3.989000000     1.433000000
H    -0.124000000    -3.286000000     1.584000000
O     5.126000000    -3.138000000     2.287000000
H     5.523000000    -2.932000000     1.441000000
H     4.500000000    -2.429000000     2.437000000
O    -1.202000000    -3.465000000    -1.659000000
H    -0.408000000    -3.098000000    -2.049000000
H    -1.041000000    -3.436000000    -0.716000000
O     6.650000000     0.131000000     0.701000000
H     6.475000000    -0.775000000     0.448000000
H     7.584000000     0.145000000     0.911000000
O     4.548000000     2.120000000    -0.202000000
H     5.088000000     1.370000000     0.046000000
H     5.177000000     2.817000000    -0.390000000
O    -4.814000000     4.786000000    -1.649000000
H    -4.097000000     5.048000000    -2.226000000
H    -4.712000000     3.840000000    -1.553000000
O     4.878000000    -6.426000000    -2.114000000
H     5.075000000    -7.053000000    -1.417000000
H     4.172000000    -5.886000000    -1.757000000
O     3.402000000    -3.500000000    -6.418000000
H     2.943000000    -2.776000000    -5.991000000
H     3.456000000    -4.179000000    -5.746000000
O    -1.161000000     0.816000000     7.043000000
H    -0.573000000     1.266000000     7.650000000
H    -0.608000000     0.594000000     6.294000000
O    -3.021000000    -4.327000000    -3.454000000
H    -2.263000000    -4.683000000    -3.918000000
H    -2.664000000    -3.617000000    -2.921000000
O     4.886000000     1.559000000     4.500000000
H     4.483000000     1.552000000     5.368000000
H     4.220000000     1.943000000     3.930000000
O     1.031000000     4.126000000     2.188000000
H     0.887000000     4.871000000     2.771000000
H     0.426000000     4.271000000     1.461000000
O    -3.712000000     3.220000000     0.970000000
H    -4.200000000     4.033000000     0.842000000
H    -4.325000000     2.641000000     1.423000000
O    -2.431000000    -0.212000000     3.649000000
H    -1.737000000    -0.759000000     4.017000000
H    -2.070000000     0.674000000     3.663000000
O    -4.198000000    -2.452000000     3.670000000
H    -3.724000000    -1.625000000     3.759000000
H    -4.122000000    -2.672000000     2.742000000
O    -1.669000000     2.789000000    -4.912000000
H    -1.506000000     1.866000000    -4.719000000
H    -2.249000000     3.082000000    -4.209000000
O    -4.020000000     1.737000000    -2.333000000
H    -4.943000000     1.630000000    -2.563000000
H    -3.956000000     1.404000000    -1.438000000
