158
-3037.99724
C    -0.909000000    -0.743000000     0.904000000
H    -1.524000000    -1.157000000     1.700000000
C    -0.050000000     0.327000000     1.270000000
H    -0.093000000     0.651000000     2.307000000
C     0.759000000     0.926000000     0.336000000
H     1.317000000     1.740000000     0.654000000
C     0.735000000     0.463000000    -0.971000000
H     1.332000000     0.960000000    -1.731000000
C    -0.064000000    -0.651000000    -1.299000000
H     0.053000000    -1.133000000    -2.267000000
C    -0.913000000    -1.218000000    -0.371000000
C    -1.858000000    -2.379000000    -0.791000000
O    -2.204000000    -3.180000000     0.031000000
O    -1.954000000    -2.625000000    -1.986000000
O     2.590000000    -2.092000000    -4.261000000
H     1.835000000    -1.675000000    -4.677000000
H     2.671000000    -2.937000000    -4.703000000
O     1.337000000    -1.807000000     3.599000000
H     1.409000000    -1.379000000     2.747000000
H     2.101000000    -2.382000000     3.644000000
O     3.562000000    -2.215000000    -1.458000000
H     3.278000000    -2.092000000    -2.364000000
H     3.487000000    -3.158000000    -1.310000000
O    -3.899000000    -6.759000000     0.384000000
H    -3.234000000    -6.091000000     0.551000000
H    -3.850000000    -6.916000000    -0.559000000
O     3.971000000     2.865000000     6.031000000
H     3.245000000     2.770000000     5.415000000
H     3.756000000     2.269000000     6.749000000
O     1.742000000    -5.399000000     2.877000000
H     1.040000000    -5.139000000     2.281000000
H     2.330000000    -5.929000000     2.338000000
O     2.945000000    -1.933000000     1.384000000
H     2.917000000    -1.722000000     0.451000000
H     2.406000000    -2.719000000     1.469000000
O     1.357000000     4.204000000    -2.980000000
H     1.756000000     3.361000000    -3.192000000
H     0.746000000     4.008000000    -2.270000000
O     3.036000000     7.124000000    -2.043000000
H     3.527000000     6.842000000    -1.272000000
H     2.217000000     6.632000000    -1.999000000
O    -6.385000000    -2.890000000     0.890000000
H    -6.747000000    -2.637000000     1.739000000
H    -7.070000000    -3.421000000     0.485000000
O     5.712000000    -2.306000000     1.523000000
H     4.898000000    -1.808000000     1.600000000
H     5.824000000    -2.715000000     2.381000000
O    -5.169000000     0.570000000     2.459000000
H    -5.148000000     1.517000000     2.319000000
H    -4.484000000     0.409000000     3.108000000
O    -3.047000000     0.547000000     5.246000000
H    -3.687000000     0.492000000     5.955000000
H    -2.771000000    -0.358000000     5.102000000
O    -1.939000000    -1.877000000    -6.669000000
H    -2.333000000    -2.254000000    -5.882000000
H    -2.212000000    -2.462000000    -7.376000000
O     5.633000000     0.787000000    -2.508000000
H     6.201000000     1.502000000    -2.795000000
H     5.320000000     1.062000000    -1.646000000
O    -4.071000000     1.414000000    -4.405000000
H    -4.379000000     2.272000000    -4.694000000
H    -3.116000000     1.483000000    -4.425000000
O     2.660000000     2.158000000    -3.975000000
H     3.175000000     1.852000000    -3.229000000
H     3.058000000     1.729000000    -4.733000000
O     0.643000000    -0.909000000    -5.623000000
H    -0.121000000    -1.324000000    -6.024000000
H     0.457000000     0.028000000    -5.667000000
O    -0.197000000    -4.158000000    -3.629000000
H    -0.910000000    -3.721000000    -3.163000000
H     0.536000000    -4.142000000    -3.014000000
O    -1.440000000     2.066000000    -4.478000000
H    -0.936000000     1.922000000    -3.677000000
H    -1.645000000     3.001000000    -4.467000000
O    -3.521000000    -6.756000000    -2.152000000
H    -3.091000000    -7.513000000    -2.549000000
H    -4.045000000    -6.380000000    -2.860000000
O    -2.180000000     2.114000000     0.056000000
H    -1.856000000     1.236000000    -0.143000000
H    -2.412000000     2.080000000     0.984000000
O    -2.944000000    -6.913000000     3.238000000
H    -3.340000000    -6.563000000     2.440000000
H    -3.517000000    -7.637000000     3.492000000
O    -2.308000000     2.489000000     3.050000000
H    -1.562000000     2.870000000     3.514000000
H    -2.678000000     1.859000000     3.667000000
O    -0.232000000     3.999000000    -0.671000000
H    -0.877000000     3.313000000    -0.494000000
H     0.254000000     4.087000000     0.148000000
O     1.133000000    -4.043000000     0.375000000
H     0.226000000    -3.833000000     0.154000000
H     1.439000000    -4.582000000    -0.354000000
O    -4.977000000    -2.286000000     3.970000000
H    -4.144000000    -2.504000000     3.553000000
H    -5.117000000    -1.363000000     3.758000000
O    -1.574000000     6.278000000    -1.740000000
H    -0.904000000     5.644000000    -1.482000000
H    -1.765000000     6.763000000    -0.937000000
O    -3.845000000    -3.944000000     1.944000000
H    -4.730000000    -3.758000000     1.632000000
H    -3.271000000    -3.501000000     1.319000000
O     4.941000000     2.224000000     2.012000000
H     5.663000000     2.841000000     2.129000000
H     5.276000000     1.395000000     2.353000000
O    -4.819000000    -5.020000000    -3.894000000
H    -4.358000000    -4.331000000    -4.373000000
H    -4.945000000    -4.658000000    -3.017000000
O    -1.637000000    -1.778000000     5.039000000
H    -1.973000000    -2.625000000     4.747000000
H    -0.767000000    -1.716000000     4.644000000
O     4.381000000     1.117000000    -0.220000000
H     3.550000000     0.667000000    -0.064000000
H     4.508000000     1.661000000     0.557000000
O    -1.335000000    -5.551000000    -0.901000000
H    -1.725000000    -4.742000000    -0.569000000
H    -2.005000000    -5.924000000    -1.473000000
O    -2.078000000    -4.287000000     4.115000000
H    -2.032000000    -5.234000000     4.252000000
H    -2.667000000    -4.181000000     3.368000000
O    -3.446000000    -2.574000000    -4.515000000
H    -2.776000000    -2.591000000    -3.831000000
H    -4.120000000    -1.986000000    -4.176000000
O    -0.445000000     6.073000000     4.418000000
H    -0.886000000     6.923000000     4.435000000
H     0.479000000     6.279000000     4.558000000
O    -0.787000000    -7.089000000    -4.296000000
H    -0.216000000    -7.460000000    -3.622000000
H    -0.482000000    -6.187000000    -4.398000000
O     0.081000000     3.858000000     2.941000000
H     0.007000000     4.492000000     3.654000000
H     0.627000000     4.295000000     2.287000000
O    -2.708000000     5.282000000     2.565000000
H    -2.684000000     4.331000000     2.677000000
H    -2.292000000     5.627000000     3.355000000
O    -0.404000000    -7.773000000     0.573000000
H    -0.535000000    -6.953000000     0.096000000
H    -0.573000000    -7.547000000     1.488000000
O     1.318000000     3.022000000     5.088000000
H     0.876000000     2.943000000     4.243000000
H     0.616000000     2.943000000     5.734000000
O    -1.296000000     2.538000000     5.696000000
H    -1.986000000     1.874000000     5.693000000
H    -1.522000000     3.116000000     6.424000000
O     1.195000000     5.857000000     0.842000000
H     0.725000000     6.601000000     1.218000000
H     2.114000000     6.022000000     1.053000000
O    -5.140000000    -0.759000000     0.079000000
H    -5.606000000    -1.513000000     0.441000000
H    -5.085000000    -0.140000000     0.807000000
O    -4.860000000    -4.005000000    -1.294000000
H    -3.946000000    -3.930000000    -1.021000000
H    -5.331000000    -3.398000000    -0.722000000
O     4.758000000     5.411000000    -0.330000000
H     5.121000000     5.517000000     0.549000000
H     4.583000000     4.473000000    -0.406000000
O    -4.769000000    -0.935000000    -3.024000000
H    -4.847000000    -1.061000000    -2.078000000
H    -4.346000000    -0.081000000    -3.117000000
