158
-3003.07061
C    -0.736000000    -0.970000000     0.826000000
H    -1.090000000    -1.722000000     1.527000000
C     0.165000000    -0.042000000     1.320000000
H     0.368000000    -0.084000000     2.387000000
C     0.840000000     0.825000000     0.429000000
H     1.505000000     1.601000000     0.806000000
C     0.586000000     0.729000000    -0.928000000
H     1.041000000     1.330000000    -1.711000000
C    -0.443000000    -0.164000000    -1.370000000
H    -0.785000000    -0.039000000    -2.394000000
C    -1.108000000    -1.025000000    -0.541000000
C    -2.000000000    -2.079000000    -1.118000000
O    -2.274000000    -3.018000000    -0.409000000
O    -2.468000000    -2.020000000    -2.231000000
O    -4.888000000    -3.001000000     4.631000000
H    -4.152000000    -2.718000000     5.174000000
H    -4.929000000    -2.353000000     3.927000000
O     3.350000000     1.079000000     4.416000000
H     3.214000000     1.719000000     3.718000000
H     4.299000000     0.957000000     4.447000000
O     1.552000000    -4.281000000    -0.638000000
H     1.925000000    -3.401000000    -0.594000000
H     1.151000000    -4.327000000    -1.506000000
O    -4.229000000    -4.063000000    -2.875000000
H    -5.091000000    -3.827000000    -2.532000000
H    -3.665000000    -3.330000000    -2.629000000
O     2.287000000    -1.687000000    -0.029000000
H     1.520000000    -1.137000000    -0.187000000
H     3.029000000    -1.147000000    -0.300000000
O    -5.043000000     1.262000000     1.296000000
H    -4.296000000     1.084000000     0.725000000
H    -4.973000000     2.195000000     1.498000000
O     3.547000000     5.221000000    -1.237000000
H     3.706000000     5.856000000    -0.538000000
H     4.128000000     5.496000000    -1.947000000
O     1.418000000     1.686000000     6.433000000
H     0.708000000     1.046000000     6.389000000
H     2.025000000     1.419000000     5.743000000
O     3.978000000     0.531000000    -0.790000000
H     4.726000000     0.204000000    -1.290000000
H     3.645000000     1.264000000    -1.309000000
O    -4.827000000    -0.838000000     2.985000000
H    -4.789000000    -0.068000000     2.417000000
H    -5.326000000    -0.548000000     3.748000000
O     7.566000000     2.627000000    -0.773000000
H     7.539000000     3.567000000    -0.954000000
H     6.894000000     2.492000000    -0.105000000
O    -1.150000000     0.901000000     5.863000000
H    -1.978000000     0.757000000     6.322000000
H    -0.758000000     0.030000000     5.797000000
O     3.527000000     2.663000000    -2.051000000
H     3.435000000     3.500000000    -1.595000000
H     3.335000000     2.867000000    -2.966000000
O     3.391000000     7.141000000     0.537000000
H     2.881000000     7.195000000    -0.271000000
H     4.261000000     7.457000000     0.292000000
O     3.093000000     2.996000000    -4.763000000
H     3.714000000     2.682000000    -5.420000000
H     2.943000000     3.913000000    -4.993000000
O     0.166000000    -0.927000000    -6.950000000
H     0.412000000    -0.146000000    -6.455000000
H    -0.695000000    -1.167000000    -6.608000000
O    -0.047000000    -1.617000000     6.247000000
H    -0.579000000    -2.251000000     5.764000000
H     0.853000000    -1.810000000     5.984000000
O    -1.762000000    -2.104000000    -5.215000000
H    -2.086000000    -1.674000000    -4.423000000
H    -2.367000000    -2.832000000    -5.357000000
O     0.868000000     1.163000000    -5.013000000
H     1.430000000     1.895000000    -5.268000000
H    -0.012000000     1.538000000    -4.977000000
O    -4.111000000    -6.873000000    -2.109000000
H    -4.451000000    -6.043000000    -2.443000000
H    -4.074000000    -7.444000000    -2.876000000
O    -3.565000000    -4.027000000    -5.675000000
H    -3.200000000    -4.852000000    -5.996000000
H    -3.987000000    -4.258000000    -4.847000000
O    -3.014000000     2.272000000    -0.786000000
H    -2.903000000     2.915000000    -0.086000000
H    -2.187000000     2.296000000    -1.266000000
O    -3.242000000    -7.050000000     2.528000000
H    -3.078000000    -6.889000000     3.457000000
H    -3.152000000    -6.190000000     2.116000000
O    -1.848000000     2.964000000    -4.761000000
H    -1.175000000     3.358000000    -4.207000000
H    -2.455000000     3.681000000    -4.947000000
O    -2.266000000     2.140000000     3.541000000
H    -1.657000000     2.871000000     3.438000000
H    -2.124000000     1.834000000     4.436000000
O     1.329000000    -2.893000000    -4.929000000
H     1.079000000    -3.718000000    -5.345000000
H     0.838000000    -2.225000000    -5.407000000
O    -0.126000000     4.410000000    -2.920000000
H    -0.366000000     4.504000000    -1.998000000
H     0.621000000     3.812000000    -2.913000000
O    -0.519000000    -4.417000000     1.238000000
H    -1.119000000    -3.846000000     0.758000000
H     0.160000000    -4.640000000     0.602000000
O    -2.198000000    -1.815000000     3.903000000
H    -2.012000000    -0.877000000     3.928000000
H    -3.135000000    -1.869000000     3.714000000
O    -0.723000000     4.650000000    -0.243000000
H    -0.898000000     5.414000000     0.306000000
H    -0.899000000     3.901000000     0.326000000
O    -3.775000000    -4.605000000     0.714000000
H    -4.660000000    -4.538000000     0.355000000
H    -3.268000000    -3.959000000     0.223000000
O    -6.968000000    -2.823000000    -4.338000000
H    -6.636000000    -2.311000000    -3.600000000
H    -6.190000000    -3.036000000    -4.852000000
O     2.319000000    -1.774000000     4.935000000
H     2.166000000    -2.161000000     4.072000000
H     2.786000000    -0.959000000     4.752000000
O     5.371000000     4.074000000     1.998000000
H     4.425000000     3.936000000     1.972000000
H     5.744000000     3.196000000     1.923000000
O    -0.214000000    -4.246000000    -2.805000000
H    -1.101000000    -3.910000000    -2.679000000
H     0.156000000    -3.695000000    -3.494000000
O    -1.532000000    -4.410000000     3.863000000
H    -1.885000000    -3.531000000     3.725000000
H    -0.990000000    -4.574000000     3.091000000
O    -3.535000000     0.282000000    -2.623000000
H    -3.287000000     0.776000000    -1.842000000
H    -3.147000000    -0.583000000    -2.492000000
O    -6.408000000    -4.683000000     0.648000000
H    -7.133000000    -5.257000000     0.402000000
H    -6.752000000    -4.160000000     1.373000000
O    -0.401000000     3.978000000     3.062000000
H    -0.601000000     4.899000000     3.230000000
H     0.295000000     4.001000000     2.405000000
O    -1.663000000    -6.745000000    -0.284000000
H    -1.554000000    -5.987000000     0.289000000
H    -2.601000000    -6.769000000    -0.474000000
O    -4.677000000     1.608000000    -4.563000000
H    -3.771000000     1.884000000    -4.704000000
H    -4.635000000     1.029000000    -3.802000000
O     2.632000000     3.377000000     3.208000000
H     2.056000000     3.301000000     3.969000000
H     2.631000000     4.311000000     2.999000000
O    -0.659000000     4.386000000     5.953000000
H    -0.543000000     3.475000000     5.681000000
H    -0.130000000     4.890000000     5.336000000
O     1.898000000     5.823000000     2.393000000
H     1.147000000     6.417000000     2.402000000
H     2.363000000     6.037000000     1.585000000
O    -5.849000000    -2.281000000    -0.739000000
H    -6.275000000    -3.125000000    -0.586000000
H    -5.990000000    -1.791000000     0.071000000
O     1.999000000    -2.590000000     2.506000000
H     2.204000000    -2.245000000     1.636000000
H     1.062000000    -2.780000000     2.473000000
O    -6.043000000    -0.361000000    -2.692000000
H    -5.199000000     0.081000000    -2.605000000
H    -6.060000000    -0.991000000    -1.972000000
O     6.379000000     1.490000000     1.309000000
H     7.135000000     1.509000000     1.897000000
H     6.246000000     0.561000000     1.120000000
