158
-3045.77635
C    -0.616000000    -0.878000000     0.964000000
H    -0.954000000    -1.499000000     1.790000000
C     0.243000000     0.096000000     1.247000000
H     0.651000000     0.309000000     2.231000000
C     0.792000000     0.882000000     0.208000000
H     1.485000000     1.664000000     0.483000000
C     0.436000000     0.684000000    -1.158000000
H     0.882000000     1.311000000    -1.926000000
C    -0.507000000    -0.282000000    -1.373000000
H    -0.788000000    -0.468000000    -2.406000000
C    -1.065000000    -1.066000000    -0.352000000
C    -2.076000000    -2.166000000    -0.596000000
O    -2.622000000    -2.726000000     0.358000000
O    -2.383000000    -2.398000000    -1.747000000
O     2.852000000    -1.376000000    -2.563000000
H     2.786000000    -0.823000000    -3.342000000
H     2.804000000    -2.271000000    -2.899000000
O     2.897000000     1.076000000     3.894000000
H     2.071000000     1.128000000     4.376000000
H     3.481000000     1.679000000     4.354000000
O     3.282000000    -0.935000000    -0.108000000
H     3.122000000    -1.088000000    -1.039000000
H     2.450000000    -0.598000000     0.225000000
O    -4.278000000    -4.932000000     1.434000000
H    -4.026000000    -4.163000000     0.923000000
H    -4.422000000    -5.617000000     0.780000000
O    -5.787000000    -0.112000000    -1.716000000
H    -5.282000000     0.215000000    -2.461000000
H    -6.499000000     0.520000000    -1.614000000
O     3.436000000    -1.261000000     2.547000000
H     3.450000000    -1.036000000     1.616000000
H     3.125000000    -0.466000000     2.980000000
O     3.500000000    -3.736000000     3.847000000
H     3.954000000    -3.781000000     4.688000000
H     3.456000000    -2.801000000     3.648000000
O     0.910000000     4.070000000    -2.251000000
H     1.833000000     3.874000000    -2.093000000
H     0.437000000     3.353000000    -1.828000000
O     6.135000000    -1.625000000     2.736000000
H     5.194000000    -1.472000000     2.818000000
H     6.282000000    -2.458000000     3.184000000
O    -2.598000000     1.329000000     1.055000000
H    -3.311000000     0.729000000     0.835000000
H    -1.804000000     0.866000000     0.786000000
O    -6.174000000    -5.719000000     3.161000000
H    -5.509000000    -5.330000000     2.593000000
H    -5.885000000    -5.507000000     4.049000000
O    -0.822000000     0.925000000    -5.378000000
H    -1.207000000     1.257000000    -4.567000000
H    -0.990000000    -0.017000000    -5.354000000
O     2.129000000     2.977000000    -5.533000000
H     1.888000000     2.875000000    -6.454000000
H     1.498000000     3.609000000    -5.189000000
O    -2.484000000     0.856000000     5.505000000
H    -3.268000000     0.337000000     5.687000000
H    -1.842000000     0.219000000     5.192000000
O    -1.402000000    -2.599000000    -5.157000000
H    -2.159000000    -2.523000000    -4.576000000
H    -1.636000000    -2.079000000    -5.925000000
O     3.381000000     3.106000000    -2.222000000
H     3.998000000     2.582000000    -1.711000000
H     3.314000000     2.649000000    -3.060000000
O     1.968000000     0.138000000    -4.798000000
H     1.802000000     1.051000000    -5.031000000
H     1.597000000    -0.366000000    -5.522000000
O    -0.091000000    -4.116000000    -2.686000000
H    -0.884000000    -3.664000000    -2.976000000
H    -0.167000000    -4.143000000    -1.732000000
O    -1.900000000     2.820000000    -3.332000000
H    -1.727000000     3.354000000    -2.557000000
H    -1.574000000     3.346000000    -4.063000000
O     0.944000000    -1.836000000    -6.347000000
H     0.249000000    -2.382000000    -5.978000000
H     0.584000000    -1.517000000    -7.174000000
O     5.633000000     5.642000000    -1.246000000
H     5.507000000     5.118000000    -0.455000000
H     4.745000000     5.846000000    -1.542000000
O    -3.720000000    -7.067000000    -0.364000000
H    -2.919000000    -7.513000000    -0.086000000
H    -3.833000000    -7.325000000    -1.278000000
O    -2.323000000    -5.541000000     3.307000000
H    -3.071000000    -5.552000000     2.710000000
H    -2.069000000    -6.460000000     3.390000000
O    -2.468000000     4.564000000    -1.323000000
H    -1.729000000     4.812000000    -0.769000000
H    -2.689000000     5.364000000    -1.801000000
O    -1.973000000     3.696000000     4.675000000
H    -1.109000000     3.630000000     4.268000000
H    -2.121000000     2.835000000     5.065000000
O     2.159000000    -3.474000000    -4.248000000
H     1.808000000    -3.070000000    -5.041000000
H     1.396000000    -3.591000000    -3.681000000
O    -0.574000000     4.914000000     0.630000000
H     0.216000000     5.454000000     0.612000000
H    -0.254000000     4.025000000     0.781000000
O     0.619000000    -5.403000000     1.682000000
H    -0.164000000    -5.403000000     1.132000000
H     1.279000000    -4.945000000     1.161000000
O    -3.362000000    -3.226000000     5.493000000
H    -3.166000000    -2.896000000     4.616000000
H    -2.630000000    -2.923000000     6.031000000
O    -3.303000000    -2.317000000     2.873000000
H    -3.777000000    -1.590000000     2.468000000
H    -2.962000000    -2.821000000     2.134000000
O     2.308000000    -4.224000000    -0.202000000
H     3.160000000    -3.935000000    -0.529000000
H     1.738000000    -4.205000000    -0.971000000
O    -4.283000000    -4.359000000    -4.733000000
H    -3.718000000    -4.473000000    -5.497000000
H    -4.127000000    -3.457000000    -4.453000000
O    -0.780000000    -1.105000000     4.666000000
H    -0.805000000    -1.868000000     4.088000000
H    -0.381000000    -1.429000000     5.473000000
O     4.589000000     1.665000000     0.133000000
H     4.153000000     0.816000000     0.208000000
H     5.519000000     1.468000000     0.245000000
O    -1.416000000    -5.089000000    -0.083000000
H    -1.832000000    -4.244000000     0.093000000
H    -2.071000000    -5.580000000    -0.579000000
O    -0.436000000    -3.477000000     3.699000000
H    -1.089000000    -4.176000000     3.744000000
H     0.284000000    -3.853000000     3.194000000
O    -3.691000000    -1.578000000    -3.971000000
H    -3.383000000    -1.803000000    -3.093000000
H    -4.238000000    -0.803000000    -3.842000000
O    -6.723000000    -3.769000000    -1.089000000
H    -5.897000000    -4.155000000    -1.381000000
H    -6.467000000    -3.123000000    -0.431000000
O     0.831000000     4.343000000     4.545000000
H     0.732000000     4.871000000     5.337000000
H     1.695000000     4.579000000     4.207000000
O     1.282000000     6.002000000    -4.359000000
H     0.377000000     6.314000000    -4.362000000
H     1.368000000     5.524000000    -3.535000000
O     1.129000000     1.751000000     5.705000000
H     0.818000000     2.635000000     5.507000000
H     0.477000000     1.173000000     5.310000000
O    -1.683000000    -5.124000000    -6.187000000
H    -1.004000000    -5.402000000    -6.801000000
H    -1.326000000    -4.336000000    -5.776000000
O     3.702000000     4.566000000     4.245000000
H     4.284000000     3.876000000     4.564000000
H     3.908000000     5.324000000     4.792000000
O     1.923000000     5.795000000     1.596000000
H     2.421000000     6.611000000     1.645000000
H     2.458000000     5.159000000     2.070000000
O    -4.396000000    -0.739000000     0.521000000
H    -4.872000000    -0.778000000    -0.309000000
H    -3.786000000    -1.476000000     0.482000000
O    -4.059000000    -4.433000000    -1.758000000
H    -3.435000000    -3.711000000    -1.681000000
H    -3.971000000    -4.729000000    -2.664000000
O     4.887000000     4.300000000     0.981000000
H     4.795000000     4.169000000     1.925000000
H     4.689000000     3.445000000     0.600000000
O    -4.197000000     1.265000000    -3.416000000
H    -3.384000000     1.767000000    -3.354000000
H    -4.882000000     1.929000000    -3.499000000
