158
-3034.92718
C     0.709000000    -1.275000000    -0.444000000
H     1.220000000    -2.198000000    -0.707000000
C    -0.420000000    -1.167000000     0.397000000
H    -0.821000000    -2.026000000     0.930000000
C    -1.030000000    -0.031000000     0.654000000
H    -1.836000000    -0.076000000     1.336000000
C    -0.515000000     1.190000000     0.178000000
H    -0.951000000     2.121000000     0.530000000
C     0.641000000     1.156000000    -0.615000000
H     1.158000000     2.044000000    -0.971000000
C     1.217000000    -0.060000000    -0.973000000
C     2.463000000    -0.099000000    -1.815000000
O     3.380000000    -0.854000000    -1.509000000
O     2.662000000     0.669000000    -2.758000000
O     4.441000000    -5.372000000    -1.029000000
H     3.560000000    -5.258000000    -1.386000000
H     4.432000000    -6.248000000    -0.644000000
O     2.120000000     2.803000000    -4.349000000
H     1.172000000     2.770000000    -4.220000000
H     2.437000000     1.965000000    -4.012000000
O     1.634000000    -5.925000000     0.436000000
H     1.559000000    -5.269000000    -0.257000000
H     1.827000000    -6.741000000    -0.026000000
O    -2.647000000    -1.435000000    -1.464000000
H    -2.630000000    -2.353000000    -1.736000000
H    -1.899000000    -1.346000000    -0.874000000
O    -4.150000000     4.254000000     4.109000000
H    -4.245000000     4.690000000     4.956000000
H    -3.263000000     3.894000000     4.123000000
O     1.996000000     4.589000000    -1.915000000
H     1.936000000     5.115000000    -2.712000000
H     2.243000000     3.716000000    -2.222000000
O    -1.500000000     3.439000000     3.137000000
H    -1.216000000     4.076000000     2.481000000
H    -0.686000000     3.114000000     3.522000000
O     1.424000000    -0.361000000     6.200000000
H     0.659000000    -0.459000000     6.767000000
H     1.082000000    -0.477000000     5.314000000
O    -1.379000000     1.705000000     5.901000000
H    -0.518000000     2.123000000     5.923000000
H    -1.288000000     0.939000000     6.467000000
O     1.442000000    -1.751000000    -5.423000000
H     1.821000000    -1.511000000    -6.269000000
H     0.523000000    -1.495000000    -5.490000000
O     4.162000000     0.514000000    -4.818000000
H     3.560000000     0.462000000    -4.075000000
H     4.777000000    -0.206000000    -4.679000000
O    -4.876000000    -0.967000000     3.783000000
H    -4.357000000    -0.165000000     3.847000000
H    -4.957000000    -1.125000000     2.842000000
O     6.223000000     2.560000000    -4.451000000
H     5.927000000     3.204000000    -3.807000000
H     5.534000000     1.896000000    -4.459000000
O     5.088000000     5.414000000    -1.684000000
H     4.682000000     4.574000000    -1.474000000
H     4.540000000     6.062000000    -1.243000000
O     6.098000000    -1.712000000    -2.472000000
H     6.102000000    -2.043000000    -3.371000000
H     5.299000000    -1.190000000    -2.413000000
O     1.833000000    -4.270000000    -1.951000000
H     2.448000000    -3.603000000    -2.257000000
H     1.068000000    -4.168000000    -2.517000000
O    -2.600000000    -4.061000000    -2.213000000
H    -3.362000000    -4.413000000    -2.672000000
H    -2.204000000    -4.821000000    -1.787000000
O     3.418000000    -2.588000000    -3.678000000
H     3.427000000    -1.870000000    -3.046000000
H     2.652000000    -2.416000000    -4.226000000
O    -5.502000000     1.646000000     0.060000000
H    -5.512000000     2.452000000     0.577000000
H    -4.728000000     1.728000000    -0.497000000
O    -4.879000000    -0.779000000     1.229000000
H    -5.232000000     0.109000000     1.174000000
H    -4.536000000    -0.955000000     0.353000000
O     2.041000000     4.412000000     0.839000000
H     1.273000000     4.919000000     1.105000000
H     1.998000000     4.396000000    -0.117000000
O     0.875000000    -0.711000000     3.435000000
H     0.064000000    -0.660000000     2.930000000
H     1.232000000    -1.575000000     3.229000000
O    -2.725000000     0.917000000     3.466000000
H    -2.212000000     1.542000000     2.953000000
H    -2.467000000     1.082000000     4.373000000
O     4.150000000    -5.624000000     1.830000000
H     3.293000000    -5.657000000     1.405000000
H     4.569000000    -6.450000000     1.587000000
O    -4.554000000     3.939000000     1.364000000
H    -4.874000000     4.798000000     1.091000000
H    -4.226000000     4.076000000     2.252000000
O     2.698000000     4.981000000    -5.718000000
H     2.269000000     4.751000000    -6.542000000
H     2.613000000     4.197000000    -5.177000000
O     4.329000000     2.670000000    -1.681000000
H     3.950000000     2.172000000    -2.406000000
H     4.261000000     2.085000000    -0.927000000
O    -0.941000000    -3.569000000     5.247000000
H    -1.189000000    -2.824000000     4.701000000
H    -0.102000000    -3.860000000     4.888000000
O     4.154000000     1.006000000     0.449000000
H     5.082000000     0.955000000     0.682000000
H     3.998000000     0.225000000    -0.082000000
O     4.431000000     3.497000000     2.078000000
H     4.184000000     2.685000000     1.636000000
H     3.731000000     4.112000000     1.857000000
O     4.307000000    -2.633000000     0.526000000
H     3.911000000    -2.073000000    -0.142000000
H     4.849000000    -3.248000000     0.032000000
O     8.416000000    -0.404000000    -1.729000000
H     7.760000000    -1.082000000    -1.891000000
H     8.509000000     0.045000000    -2.570000000
O    -2.247000000    -4.536000000     1.631000000
H    -1.909000000    -5.432000000     1.637000000
H    -1.759000000    -4.091000000     2.324000000
O    -2.435000000     4.074000000    -1.061000000
H    -2.638000000     3.239000000    -1.481000000
H    -3.068000000     4.143000000    -0.346000000
O    -0.131000000    -3.828000000    -3.661000000
H    -0.944000000    -4.202000000    -3.321000000
H    -0.412000000    -3.238000000    -4.360000000
O     3.416000000     1.803000000    -7.196000000
H     4.002000000     1.073000000    -6.993000000
H     3.434000000     2.349000000    -6.410000000
O    -2.805000000     6.518000000    -1.817000000
H    -3.723000000     6.487000000    -2.087000000
H    -2.526000000     5.602000000    -1.809000000
O    -6.151000000     1.303000000     4.863000000
H    -6.551000000     1.070000000     5.701000000
H    -5.616000000     0.543000000     4.633000000
O     1.963000000    -3.312000000     3.174000000
H     2.517000000    -3.803000000     2.568000000
H     1.665000000    -3.964000000     3.809000000
O    -1.064000000     5.424000000     1.239000000
H    -0.803000000     6.290000000     0.925000000
H    -1.435000000     4.992000000     0.469000000
O    -4.595000000    -5.789000000     0.573000000
H    -3.862000000    -5.197000000     0.740000000
H    -5.049000000    -5.402000000    -0.176000000
O     5.250000000    -2.639000000     3.097000000
H     4.768000000    -3.229000000     3.677000000
H     4.925000000    -2.847000000     2.221000000
O     1.121000000     2.090000000     3.320000000
H     1.170000000     1.188000000     3.638000000
H     1.536000000     2.063000000     2.458000000
O    -5.464000000    -2.793000000     5.835000000
H    -5.265000000    -3.609000000     5.377000000
H    -5.322000000    -2.110000000     5.180000000
O     6.607000000    -4.318000000    -2.069000000
H     5.814000000    -4.554000000    -1.587000000
H     6.645000000    -3.363000000    -2.013000000
O    -3.272000000     1.581000000    -1.672000000
H    -3.500000000     1.366000000    -2.576000000
H    -2.981000000     0.751000000    -1.295000000
O    -0.887000000     2.365000000    -4.851000000
H    -1.343000000     1.693000000    -4.344000000
H    -1.587000000     2.913000000    -5.206000000
O    -2.125000000    -1.803000000     3.551000000
H    -2.204000000    -0.861000000     3.398000000
H    -2.955000000    -2.166000000     3.240000000
