158
-3017.80432
C     0.164000000     1.448000000     0.296000000
H     0.422000000     2.466000000     0.576000000
C     0.450000000     0.442000000     1.217000000
H     0.982000000     0.685000000     2.132000000
C     0.110000000    -0.879000000     0.864000000
H     0.302000000    -1.686000000     1.648000000
C    -0.378000000    -1.191000000    -0.376000000
H    -0.576000000    -2.240000000    -0.581000000
C    -0.600000000    -0.133000000    -1.305000000
H    -1.051000000    -0.375000000    -2.264000000
C    -0.343000000     1.198000000    -0.986000000
C    -0.545000000     2.316000000    -2.010000000
O    -0.304000000     3.421000000    -1.674000000
O    -1.104000000     2.072000000    -3.024000000
O    -2.509000000    -1.464000000    -4.307000000
H    -2.904000000    -1.917000000    -5.053000000
H    -1.680000000    -1.919000000    -4.162000000
O    -3.504000000     1.281000000    -3.948000000
H    -3.087000000     0.503000000    -4.318000000
H    -2.831000000     1.671000000    -3.389000000
O     1.605000000     3.966000000     2.401000000
H     1.890000000     3.125000000     2.044000000
H     1.539000000     4.540000000     1.638000000
O     1.535000000    -4.040000000     0.793000000
H     2.084000000    -3.256000000     0.776000000
H     2.108000000    -4.726000000     1.135000000
O    -5.480000000     2.972000000    -2.054000000
H    -6.401000000     3.186000000    -1.908000000
H    -5.431000000     2.025000000    -1.929000000
O    -1.251000000    -4.731000000    -3.214000000
H    -1.749000000    -4.948000000    -4.001000000
H    -1.874000000    -4.847000000    -2.496000000
O    -4.989000000    -3.374000000    -3.246000000
H    -4.597000000    -2.502000000    -3.286000000
H    -4.832000000    -3.667000000    -2.349000000
O    -0.347000000     2.271000000     3.955000000
H     0.083000000     1.726000000     3.296000000
H    -1.282000000     2.155000000     3.789000000
O     2.264000000     6.480000000    -5.139000000
H     2.736000000     5.856000000    -5.691000000
H     1.545000000     5.972000000    -4.764000000
O     2.945000000    -5.891000000     2.113000000
H     3.075000000    -6.349000000     2.943000000
H     3.573000000    -6.295000000     1.515000000
O    -2.160000000     7.429000000    -2.891000000
H    -2.155000000     7.651000000    -3.822000000
H    -2.418000000     6.507000000    -2.867000000
O    -1.107000000    -5.240000000     1.197000000
H    -1.316000000    -5.005000000     2.101000000
H    -0.214000000    -4.923000000     1.067000000
O    -1.158000000     3.920000000    -5.029000000
H    -0.583000000     4.528000000    -4.564000000
H    -1.304000000     3.206000000    -4.409000000
O    -1.272000000     1.832000000    -7.330000000
H    -2.167000000     2.157000000    -7.226000000
H    -1.089000000     1.370000000    -6.512000000
O     4.433000000     0.113000000     0.188000000
H     5.240000000     0.058000000     0.700000000
H     4.177000000     1.034000000     0.242000000
O     2.441000000     1.082000000    -3.704000000
H     1.661000000     1.056000000    -4.258000000
H     2.424000000     1.952000000    -3.306000000
O     2.842000000    -3.642000000    -2.422000000
H     2.719000000    -2.789000000    -2.007000000
H     2.165000000    -4.197000000    -2.035000000
O    -0.231000000    -2.724000000    -4.943000000
H     0.236000000    -3.132000000    -5.672000000
H    -0.407000000    -3.444000000    -4.338000000
O     4.126000000    -3.486000000     4.148000000
H     3.623000000    -3.285000000     3.358000000
H     4.835000000    -4.053000000     3.842000000
O    -3.461000000    -3.928000000     3.583000000
H    -3.663000000    -3.008000000     3.753000000
H    -2.967000000    -4.210000000     4.353000000
O    -3.647000000     4.914000000    -5.175000000
H    -3.110000000     5.137000000    -5.936000000
H    -3.112000000     4.294000000    -4.678000000
O    -5.178000000     0.372000000    -2.054000000
H    -5.319000000    -0.342000000    -1.432000000
H    -4.503000000     0.042000000    -2.648000000
O     3.532000000    -2.357000000     1.702000000
H     3.419000000    -1.442000000     1.446000000
H     4.418000000    -2.578000000     1.415000000
O     2.848000000    -1.030000000    -1.676000000
H     2.645000000    -0.438000000    -2.400000000
H     3.342000000    -0.492000000    -1.057000000
O    -2.758000000     4.559000000    -1.946000000
H    -3.383000000     3.862000000    -1.747000000
H    -1.950000000     4.099000000    -2.171000000
O     3.355000000     6.889000000    -2.556000000
H     2.529000000     6.592000000    -2.176000000
H     3.192000000     6.908000000    -3.499000000
O    -2.942000000    -0.036000000     0.870000000
H    -2.276000000    -0.467000000     0.334000000
H    -3.713000000    -0.597000000     0.792000000
O     3.977000000     0.470000000     4.939000000
H     3.355000000     0.256000000     5.635000000
H     3.988000000     1.427000000     4.913000000
O    -0.316000000    -1.591000000     6.483000000
H    -0.509000000    -2.148000000     5.730000000
H    -1.133000000    -1.569000000     6.981000000
O     1.152000000     4.950000000    -0.096000000
H     0.609000000     4.545000000    -0.772000000
H     1.041000000     5.891000000    -0.232000000
O    -2.971000000     6.057000000     0.848000000
H    -3.464000000     6.673000000     1.391000000
H    -2.312000000     6.597000000     0.411000000
O     0.873000000     5.442000000     4.380000000
H     1.190000000     4.741000000     3.811000000
H     0.648000000     6.153000000     3.781000000
O     4.625000000    -2.632000000     6.593000000
H     4.053000000    -3.054000000     7.234000000
H     4.089000000    -2.561000000     5.804000000
O    -0.066000000    -3.340000000     3.617000000
H     0.171000000    -3.360000000     2.690000000
H     0.642000000    -3.810000000     4.056000000
O     0.069000000     0.610000000    -4.936000000
H    -0.503000000     0.995000000    -4.272000000
H     0.014000000    -0.333000000    -4.781000000
O     0.207000000     5.546000000    -3.421000000
H    -0.341000000     6.322000000    -3.295000000
H    -0.050000000     4.954000000    -2.714000000
O    -2.761000000    -5.149000000    -0.988000000
H    -2.156000000    -5.280000000    -0.258000000
H    -3.567000000    -5.587000000    -0.712000000
O    -4.820000000    -4.018000000     1.068000000
H    -4.771000000    -4.816000000     0.543000000
H    -4.240000000    -4.184000000     1.811000000
O     3.453000000     2.845000000     0.082000000
H     2.734000000     3.218000000    -0.427000000
H     4.187000000     2.808000000    -0.532000000
O     0.716000000     4.268000000    -7.211000000
H     0.156000000     3.969000000    -6.495000000
H     0.468000000     3.719000000    -7.955000000
O     2.181000000    -0.457000000     7.201000000
H     2.420000000    -1.276000000     7.634000000
H     1.336000000    -0.641000000     6.790000000
O     0.530000000     3.401000000     6.120000000
H     0.496000000     4.273000000     5.726000000
H     0.206000000     2.816000000     5.435000000
O    -2.877000000     4.642000000     3.403000000
H    -3.026000000     3.702000000     3.297000000
H    -2.541000000     4.928000000     2.554000000
O    -3.355000000    -1.111000000     4.895000000
H    -3.588000000    -0.185000000     4.959000000
H    -2.429000000    -1.143000000     5.136000000
O    -4.061000000     2.171000000     2.284000000
H    -3.725000000     1.496000000     1.695000000
H    -3.800000000     1.878000000     3.157000000
O     2.084000000    -4.380000000     5.726000000
H     2.164000000    -4.477000000     6.675000000
H     2.819000000    -4.880000000     5.371000000
O     2.810000000     3.609000000    -2.765000000
H     3.644000000     4.075000000    -2.828000000
H     2.215000000     4.108000000    -3.325000000
O    -5.731000000     3.007000000    -4.982000000
H    -5.069000000     3.682000000    -5.130000000
H    -5.293000000     2.361000000    -4.427000000
