158
-3040.53450
C     1.496000000     0.067000000    -0.195000000
H     2.576000000     0.192000000    -0.169000000
C     0.804000000    -0.815000000     0.692000000
H     1.290000000    -1.369000000     1.491000000
C    -0.581000000    -0.880000000     0.735000000
H    -1.035000000    -1.510000000     1.458000000
C    -1.258000000    -0.090000000    -0.207000000
H    -2.345000000    -0.123000000    -0.195000000
C    -0.621000000     0.805000000    -1.052000000
H    -1.214000000     1.284000000    -1.826000000
C     0.773000000     0.881000000    -1.049000000
C     1.421000000     1.797000000    -1.954000000
O     2.583000000     1.621000000    -2.304000000
O     0.813000000     2.765000000    -2.448000000
O    -3.596000000     0.551000000    -2.630000000
H    -4.008000000     0.108000000    -1.888000000
H    -3.450000000     1.446000000    -2.324000000
O     0.100000000     1.541000000    -4.663000000
H     0.927000000     1.371000000    -5.115000000
H     0.346000000     2.073000000    -3.907000000
O     2.974000000     3.204000000     1.558000000
H     2.533000000     2.394000000     1.816000000
H     2.265000000     3.837000000     1.443000000
O     3.671000000    -4.333000000     2.231000000
H     3.669000000    -3.712000000     1.503000000
H     2.765000000    -4.343000000     2.540000000
O    -0.601000000     4.542000000    -3.537000000
H    -1.356000000     3.957000000    -3.470000000
H     0.138000000     4.015000000    -3.234000000
O     1.445000000    -1.770000000    -2.445000000
H     1.514000000    -2.719000000    -2.335000000
H     1.288000000    -1.438000000    -1.562000000
O    -3.121000000     4.061000000     1.549000000
H    -2.601000000     3.431000000     2.047000000
H    -3.994000000     4.011000000     1.938000000
O    -1.909000000    -3.080000000     3.770000000
H    -2.156000000    -3.214000000     2.855000000
H    -2.561000000    -2.467000000     4.108000000
O    -3.604000000     0.001000000    -5.276000000
H    -2.796000000    -0.145000000    -5.768000000
H    -3.352000000    -0.124000000    -4.361000000
O    -3.785000000    -0.996000000     3.258000000
H    -4.551000000    -0.458000000     3.057000000
H    -3.109000000    -0.366000000     3.508000000
O    -5.261000000    -3.302000000    -1.600000000
H    -4.990000000    -2.923000000    -2.436000000
H    -4.853000000    -2.741000000    -0.940000000
O    -4.136000000    -1.787000000     0.313000000
H    -3.660000000    -2.617000000     0.320000000
H    -4.072000000    -1.467000000     1.213000000
O     1.982000000     0.731000000    -6.510000000
H     2.585000000     0.422000000    -5.834000000
H     2.212000000     0.221000000    -7.287000000
O    -2.116000000    -6.479000000     2.395000000
H    -2.782000000    -7.011000000     1.961000000
H    -2.008000000    -6.884000000     3.256000000
O     1.659000000    -3.729000000    -0.558000000
H     2.448000000    -3.254000000    -0.297000000
H     1.769000000    -4.602000000    -0.181000000
O     2.540000000     3.439000000    -4.541000000
H     1.858000000     4.068000000    -4.774000000
H     2.407000000     3.277000000    -3.607000000
O     0.615000000     4.641000000    -6.423000000
H    -0.224000000     4.301000000    -6.113000000
H     0.764000000     4.189000000    -7.254000000
O    -2.135000000     2.676000000    -5.893000000
H    -2.533000000     1.972000000    -6.404000000
H    -1.447000000     2.245000000    -5.387000000
O     4.102000000    -2.375000000     0.261000000
H     4.696000000    -2.041000000     0.933000000
H     4.341000000    -1.894000000    -0.531000000
O     4.245000000    -2.782000000    -3.734000000
H     4.060000000    -1.843000000    -3.699000000
H     3.884000000    -3.066000000    -4.573000000
O     0.242000000    -5.837000000     1.227000000
H    -0.548000000    -6.165000000     1.655000000
H     0.796000000    -5.535000000     1.946000000
O    -2.203000000     2.134000000     3.243000000
H    -1.407000000     2.663000000     3.195000000
H    -2.140000000     1.682000000     4.085000000
O     5.291000000    -0.702000000    -1.614000000
H     6.020000000    -0.683000000    -2.233000000
H     4.628000000    -0.134000000    -2.006000000
O    -2.095000000     5.346000000    -0.593000000
H    -2.474000000     4.898000000     0.164000000
H    -2.426000000     4.862000000    -1.349000000
O    -0.980000000    -4.808000000     5.903000000
H    -1.424000000    -4.157000000     5.360000000
H    -0.488000000    -4.293000000     6.541000000
O     3.519000000     6.025000000    -2.050000000
H     3.655000000     6.790000000    -1.491000000
H     2.590000000     5.817000000    -1.950000000
O    -5.207000000    -3.349000000     2.825000000
H    -5.253000000    -3.412000000     3.779000000
H    -4.704000000    -2.551000000     2.662000000
O    -2.361000000     0.424000000     5.969000000
H    -2.656000000    -0.406000000     6.343000000
H    -3.085000000     1.029000000     6.128000000
O     1.326000000    -4.885000000     3.549000000
H     1.327000000    -3.984000000     3.870000000
H     0.522000000    -5.265000000     3.903000000
O     1.594000000     6.958000000    -4.698000000
H     1.400000000     7.581000000    -3.998000000
H     0.968000000     6.246000000    -4.565000000
O     4.403000000     3.479000000    -1.984000000
H     3.665000000     2.885000000    -2.120000000
H     4.029000000     4.354000000    -2.088000000
O     1.355000000     5.319000000     1.378000000
H     1.945000000     6.072000000     1.386000000
H     1.104000000     5.222000000     0.459000000
O    -0.584000000    -0.878000000    -3.863000000
H    -0.551000000     0.078000000    -3.839000000
H     0.166000000    -1.157000000    -3.339000000
O     0.855000000     5.147000000    -1.166000000
H     0.954000000     4.265000000    -1.525000000
H    -0.052000000     5.385000000    -1.361000000
O    -0.691000000    -3.477000000    -1.811000000
H    -0.099000000    -3.823000000    -1.143000000
H    -0.396000000    -2.577000000    -1.948000000
O     2.958000000    -0.287000000    -4.051000000
H     2.418000000    -0.928000000    -3.590000000
H     2.938000000     0.490000000    -3.493000000
O    -2.521000000    -3.929000000     0.426000000
H    -2.161000000    -4.040000000    -0.453000000
H    -2.517000000    -4.810000000     0.800000000
O     5.302000000     2.510000000     0.383000000
H     4.580000000     2.647000000     0.996000000
H     5.063000000     3.024000000    -0.388000000
O     5.058000000     3.214000000    -5.457000000
H     4.192000000     3.173000000    -5.051000000
H     5.131000000     4.114000000    -5.776000000
O     0.611000000     0.249000000     5.638000000
H     0.935000000     0.865000000     6.296000000
H    -0.337000000     0.377000000     5.637000000
O     4.029000000    -1.091000000     3.945000000
H     4.536000000    -0.370000000     3.572000000
H     4.614000000    -1.847000000     3.894000000
O     0.840000000    -2.815000000     7.159000000
H     0.807000000    -2.648000000     8.101000000
H     0.869000000    -1.945000000     6.762000000
O     1.634000000    -2.348000000     4.174000000
H     2.500000000    -1.958000000     4.054000000
H     1.141000000    -1.691000000     4.665000000
O     1.627000000     1.303000000     2.904000000
H     1.300000000     0.522000000     3.351000000
H     1.104000000     2.021000000     3.261000000
O    -5.829000000     0.504000000     2.353000000
H    -6.765000000     0.637000000     2.203000000
H    -5.402000000     0.986000000     1.645000000
O    -5.624000000     2.385000000     0.369000000
H    -5.390000000     3.229000000    -0.018000000
H    -6.394000000     2.101000000    -0.123000000
O     6.065000000     1.455000000    -3.167000000
H     5.744000000     1.894000000    -2.380000000
H     5.728000000     1.983000000    -3.891000000
O    -3.316000000     3.531000000    -3.186000000
H    -4.179000000     3.696000000    -2.805000000
H    -3.495000000     3.316000000    -4.101000000
