158
-3030.40243
C     0.895000000     1.021000000     0.467000000
H     1.620000000     1.694000000     0.918000000
C     0.201000000     0.076000000     1.347000000
H     0.201000000     0.139000000     2.432000000
C    -0.548000000    -0.851000000     0.712000000
H    -1.095000000    -1.503000000     1.363000000
C    -0.717000000    -0.811000000    -0.708000000
H    -1.361000000    -1.539000000    -1.193000000
C    -0.162000000     0.203000000    -1.490000000
H    -0.401000000     0.112000000    -2.547000000
C     0.718000000     1.120000000    -0.930000000
C     1.275000000     2.214000000    -1.746000000
O     2.202000000     2.896000000    -1.316000000
O     1.061000000     2.168000000    -2.916000000
O    -0.885000000     4.436000000    -6.174000000
H    -0.923000000     5.388000000    -6.263000000
H    -1.759000000     4.189000000    -5.872000000
O    -0.523000000     4.244000000    -3.369000000
H    -0.528000000     4.771000000    -4.168000000
H     0.142000000     3.574000000    -3.529000000
O    -5.480000000    -1.446000000    -1.083000000
H    -5.036000000    -0.933000000    -1.759000000
H    -5.285000000    -0.986000000    -0.267000000
O    -2.378000000     4.684000000     1.290000000
H    -1.799000000     4.834000000     0.543000000
H    -2.610000000     3.757000000     1.231000000
O     1.041000000    -3.202000000    -4.595000000
H     1.786000000    -2.949000000    -5.140000000
H     0.499000000    -2.414000000    -4.549000000
O     5.620000000     3.198000000     2.009000000
H     5.311000000     4.100000000     2.100000000
H     5.193000000     2.879000000     1.214000000
O     0.077000000    -4.759000000    -1.401000000
H     0.863000000    -4.215000000    -1.457000000
H    -0.116000000    -4.995000000    -2.308000000
O    -2.462000000    -6.808000000     2.798000000
H    -3.344000000    -7.094000000     2.560000000
H    -2.529000000    -6.571000000     3.723000000
O    -2.024000000     0.896000000    -6.337000000
H    -2.206000000     1.697000000    -5.844000000
H    -2.349000000     1.078000000    -7.218000000
O    -4.532000000    -0.159000000     1.684000000
H    -3.823000000    -0.695000000     2.040000000
H    -5.294000000    -0.384000000     2.217000000
O    -1.609000000     1.724000000     3.282000000
H    -1.421000000     0.790000000     3.182000000
H    -0.747000000     2.141000000     3.291000000
O    -2.908000000     1.924000000    -2.795000000
H    -2.004000000     2.239000000    -2.824000000
H    -3.391000000     2.623000000    -2.354000000
O     3.922000000     2.699000000     5.382000000
H     3.108000000     2.715000000     5.885000000
H     3.679000000     2.303000000     4.546000000
O    -5.122000000    -3.655000000     3.243000000
H    -4.755000000    -3.627000000     4.127000000
H    -4.371000000    -3.510000000     2.667000000
O    -5.167000000     2.821000000     1.897000000
H    -4.485000000     2.192000000     1.660000000
H    -5.619000000     3.006000000     1.074000000
O     0.312000000    -6.864000000     1.409000000
H     0.629000000    -7.318000000     0.629000000
H    -0.313000000    -7.472000000     1.804000000
O    -0.102000000    -4.239000000     1.358000000
H    -0.222000000    -4.103000000     0.418000000
H     0.162000000    -5.155000000     1.436000000
O    -0.717000000     5.000000000    -0.673000000
H    -0.707000000     4.994000000    -1.630000000
H     0.179000000     4.778000000    -0.422000000
O     2.270000000    -1.194000000     4.690000000
H     2.286000000    -0.354000000     4.231000000
H     1.342000000    -1.354000000     4.864000000
O     1.708000000     3.705000000    -6.071000000
H     0.767000000     3.882000000    -6.088000000
H     1.771000000     2.762000000    -5.918000000
O     4.297000000    -0.529000000     2.320000000
H     4.719000000    -0.293000000     1.494000000
H     3.922000000    -1.395000000     2.158000000
O     3.017000000     0.786000000    -7.627000000
H     2.405000000     0.813000000    -6.892000000
H     3.847000000     1.091000000    -7.259000000
O     3.661000000    -5.253000000     1.139000000
H     3.294000000    -4.863000000     1.932000000
H     3.413000000    -4.650000000     0.438000000
O     3.065000000    -1.075000000    -0.699000000
H     3.632000000    -0.637000000    -1.333000000
H     2.215000000    -0.647000000    -0.801000000
O     0.653000000     3.957000000     2.747000000
H     0.900000000     4.446000000     1.963000000
H     0.024000000     4.523000000     3.195000000
O    -2.476000000    -4.045000000     2.257000000
H    -1.528000000    -3.945000000     2.174000000
H    -2.607000000    -4.983000000     2.395000000
O     2.993000000    -3.199000000     2.846000000
H     3.378000000    -2.743000000     3.595000000
H     2.053000000    -3.200000000     3.024000000
O     2.712000000    -3.954000000    -0.899000000
H     2.786000000    -3.004000000    -0.995000000
H     3.290000000    -4.309000000    -1.574000000
O     0.719000000     7.254000000     0.944000000
H     1.397000000     6.721000000     0.529000000
H     0.447000000     7.869000000     0.262000000
O    -1.101000000    -1.231000000    -5.005000000
H    -1.471000000    -0.515000000    -5.522000000
H    -1.378000000    -2.025000000    -5.462000000
O    -3.845000000     2.474000000     4.521000000
H    -2.933000000     2.199000000     4.430000000
H    -4.137000000     2.635000000     3.623000000
O    -2.526000000     1.833000000     0.545000000
H    -2.282000000     1.002000000     0.138000000
H    -2.111000000     1.809000000     1.408000000
O     4.792000000     2.327000000    -0.496000000
H     5.221000000     1.665000000    -1.038000000
H     3.905000000     2.389000000    -0.852000000
O     2.037000000     4.917000000     0.117000000
H     2.892000000     5.032000000     0.533000000
H     2.098000000     4.070000000    -0.325000000
O     1.744000000     7.270000000    -3.189000000
H     1.879000000     6.330000000    -3.075000000
H     1.112000000     7.337000000    -3.905000000
O     2.522000000     4.535000000    -3.485000000
H     2.484000000     3.880000000    -2.788000000
H     2.271000000     4.057000000    -4.276000000
O     0.171000000    -3.347000000     3.815000000
H     0.314000000    -4.275000000     4.002000000
H     0.084000000    -3.306000000     2.863000000
O    -6.201000000    -1.305000000     3.533000000
H    -6.244000000    -1.169000000     4.480000000
H    -5.811000000    -2.173000000     3.433000000
O     1.698000000     0.960000000    -5.353000000
H     1.472000000     1.179000000    -4.449000000
H     1.020000000     0.342000000    -5.626000000
O    -2.195000000    -6.179000000    -0.786000000
H    -1.934000000    -6.398000000     0.109000000
H    -1.389000000    -5.877000000    -1.204000000
O    -2.288000000    -1.386000000     3.642000000
H    -2.388000000    -2.333000000     3.543000000
H    -1.665000000    -1.286000000     4.362000000
O     5.026000000    -0.084000000    -2.625000000
H     5.943000000     0.089000000    -2.413000000
H     5.059000000    -0.774000000    -3.287000000
O    -4.002000000    -3.433000000     5.708000000
H    -3.315000000    -3.767000000     6.284000000
H    -4.767000000    -3.338000000     6.276000000
O    -0.382000000    -0.673000000     5.697000000
H    -0.436000000    -1.005000000     6.594000000
H    -0.274000000     0.273000000     5.799000000
O     2.458000000     1.614000000     3.449000000
H     3.117000000     1.119000000     2.961000000
H     2.163000000     2.288000000     2.836000000
O    -3.740000000    -4.820000000    -2.850000000
H    -3.119000000    -5.397000000    -2.404000000
H    -4.396000000    -4.614000000    -2.184000000
O    -3.865000000    -0.564000000    -3.139000000
H    -3.093000000    -0.875000000    -3.611000000
H    -3.698000000     0.367000000    -2.994000000
O     5.239000000     3.954000000    -3.122000000
H     5.045000000     3.751000000    -2.207000000
H     4.485000000     4.462000000    -3.421000000
