158
-3008.27154
C     1.113000000    -0.199000000     0.874000000
H     1.779000000    -0.430000000     1.702000000
C     0.086000000    -1.073000000     0.612000000
H     0.034000000    -2.050000000     1.085000000
C    -0.916000000    -0.761000000    -0.225000000
H    -1.759000000    -1.459000000    -0.503000000
C    -0.926000000     0.476000000    -0.878000000
H    -1.699000000     0.557000000    -1.638000000
C     0.153000000     1.336000000    -0.694000000
H     0.198000000     2.279000000    -1.233000000
C     1.164000000     1.014000000     0.265000000
C     2.231000000     1.995000000     0.674000000
O     3.102000000     1.635000000     1.435000000
O     2.182000000     3.144000000     0.297000000
O    -1.855000000     5.329000000    -2.048000000
H    -1.843000000     6.140000000    -1.539000000
H    -2.737000000     4.980000000    -1.921000000
O     0.676000000     5.270000000    -0.142000000
H     0.615000000     5.218000000    -1.096000000
H     1.122000000     4.463000000     0.114000000
O    -4.876000000    -6.445000000    -1.055000000
H    -4.531000000    -7.331000000    -1.165000000
H    -4.244000000    -6.011000000    -0.482000000
O    -1.880000000     4.833000000     1.138000000
H    -1.657000000     3.914000000     1.287000000
H    -1.168000000     5.166000000     0.591000000
O    -2.844000000    -5.173000000     0.393000000
H    -1.949000000    -4.869000000     0.244000000
H    -2.747000000    -5.931000000     0.970000000
O    -1.734000000    -5.483000000    -4.850000000
H    -1.752000000    -4.650000000    -4.380000000
H    -2.569000000    -5.898000000    -4.634000000
O    -5.355000000    -0.933000000    -1.264000000
H    -6.192000000    -0.764000000    -1.695000000
H    -5.585000000    -1.434000000    -0.481000000
O     1.158000000    -2.132000000    -4.316000000
H     1.731000000    -1.796000000    -3.627000000
H     1.750000000    -2.349000000    -5.036000000
O    -2.718000000    -0.685000000     5.106000000
H    -2.681000000    -0.934000000     6.029000000
H    -2.421000000    -1.463000000     4.635000000
O     0.068000000     0.515000000     4.421000000
H    -0.592000000     1.206000000     4.363000000
H    -0.427000000    -0.272000000     4.648000000
O    -4.241000000     1.101000000     0.079000000
H    -4.556000000     0.461000000    -0.560000000
H    -3.769000000     0.579000000     0.728000000
O    -4.450000000    -5.188000000     3.690000000
H    -4.000000000    -4.497000000     4.176000000
H    -3.764000000    -5.825000000     3.490000000
O     3.349000000     3.408000000    -1.973000000
H     3.037000000     3.428000000    -1.068000000
H     3.064000000     4.243000000    -2.343000000
O    -3.195000000     0.128000000     2.417000000
H    -2.947000000     0.046000000     3.338000000
H    -3.478000000    -0.751000000     2.166000000
O    -6.675000000    -1.744000000     1.030000000
H    -7.556000000    -2.115000000     0.977000000
H    -6.772000000    -0.974000000     1.589000000
O     1.700000000    -3.414000000    -1.218000000
H     2.627000000    -3.612000000    -1.084000000
H     1.672000000    -2.464000000    -1.332000000
O     4.433000000    -3.137000000     1.591000000
H     3.981000000    -3.317000000     0.766000000
H     4.632000000    -2.201000000     1.555000000
O     2.203000000    -0.612000000    -2.123000000
H     3.025000000    -0.384000000    -1.689000000
H     1.559000000    -0.012000000    -1.748000000
O     5.581000000     4.021000000     3.060000000
H     5.083000000     4.306000000     2.293000000
H     4.936000000     3.578000000     3.612000000
O    -5.674000000    -3.955000000    -3.622000000
H    -6.178000000    -4.193000000    -2.844000000
H    -5.123000000    -4.718000000    -3.794000000
O    -1.974000000    -3.186000000     4.161000000
H    -1.661000000    -3.963000000     3.698000000
H    -1.262000000    -2.961000000     4.759000000
O    -0.604000000     3.309000000    -3.704000000
H     0.284000000     3.632000000    -3.857000000
H    -1.066000000     4.053000000    -3.317000000
O     2.201000000    -4.840000000    -3.787000000
H     2.150000000    -4.830000000    -2.831000000
H     1.978000000    -5.739000000    -4.029000000
O    -3.976000000    -1.638000000    -3.581000000
H    -4.511000000    -2.380000000    -3.863000000
H    -4.275000000    -1.451000000    -2.691000000
O    -1.452000000     2.118000000     2.126000000
H    -1.938000000     1.433000000     1.667000000
H    -0.544000000     1.993000000     1.848000000
O     4.903000000    -0.175000000     1.644000000
H     4.326000000     0.578000000     1.519000000
H     4.925000000    -0.304000000     2.593000000
O     3.571000000     5.441000000     1.404000000
H     3.954000000     5.714000000     0.571000000
H     3.129000000     4.615000000     1.205000000
O     4.728000000     6.090000000    -1.053000000
H     5.537000000     5.602000000    -0.900000000
H     4.797000000     6.391000000    -1.959000000
O     5.208000000     3.218000000     0.225000000
H     4.389000000     2.995000000     0.667000000
H     5.154000000     2.771000000    -0.620000000
O     7.679000000     0.867000000     0.673000000
H     7.300000000     0.822000000    -0.205000000
H     6.932000000     0.762000000     1.262000000
O    -3.870000000     3.438000000    -1.648000000
H    -4.425000000     3.302000000    -2.416000000
H    -4.014000000     2.661000000    -1.108000000
O     2.417000000    -4.418000000     3.014000000
H     3.105000000    -4.041000000     2.465000000
H     2.192000000    -5.242000000     2.583000000
O     1.406000000     4.986000000    -4.197000000
H     2.015000000     5.481000000    -4.746000000
H     0.541000000     5.318000000    -4.440000000
O     1.279000000    -2.191000000     4.528000000
H     1.593000000    -3.019000000     4.163000000
H     2.057000000    -1.792000000     4.918000000
O     3.962000000     1.380000000    -4.105000000
H     4.000000000     0.624000000    -3.519000000
H     3.920000000     2.136000000    -3.518000000
O    -0.384000000    -5.067000000    -1.412000000
H     0.482000000    -4.676000000    -1.297000000
H    -0.705000000    -4.700000000    -2.235000000
O    -2.245000000     3.495000000    -5.904000000
H    -2.182000000     2.541000000    -5.946000000
H    -1.716000000     3.736000000    -5.144000000
O     4.604000000    -0.149000000    -1.164000000
H     5.384000000     0.340000000    -1.427000000
H     4.709000000    -0.277000000    -0.221000000
O     5.429000000    -0.532000000     4.413000000
H     5.758000000    -1.233000000     4.975000000
H     4.613000000    -0.254000000     4.828000000
O     3.374000000     2.618000000     4.077000000
H     3.244000000     2.241000000     3.207000000
H     2.506000000     2.598000000     4.480000000
O     2.536000000     5.567000000     3.956000000
H     2.601000000     5.618000000     3.002000000
H     1.691000000     5.966000000     4.161000000
O     0.122000000     1.351000000    -5.547000000
H     0.191000000     0.441000000    -5.259000000
H     0.057000000     1.855000000    -4.736000000
O    -3.861000000     0.769000000    -4.640000000
H    -3.884000000    -0.002000000    -4.074000000
H    -4.295000000     1.453000000    -4.130000000
O     2.900000000    -0.007000000     5.454000000
H     3.078000000     0.148000000     6.381000000
H     1.988000000     0.262000000     5.337000000
O    -3.940000000    -2.150000000     1.400000000
H    -4.894000000    -2.182000000     1.334000000
H    -3.664000000    -3.064000000     1.325000000
O    -2.052000000    -7.176000000    -1.746000000
H    -2.166000000    -7.578000000    -0.885000000
H    -1.607000000    -6.348000000    -1.566000000
O    -1.319000000    -2.913000000    -3.684000000
H    -1.971000000    -2.225000000    -3.547000000
H    -0.480000000    -2.452000000    -3.679000000
O     0.635000000     8.037000000     0.861000000
H     0.573000000     7.104000000     1.066000000
H     0.093000000     8.465000000     1.524000000
