158
-3040.47126
C     0.928000000     0.558000000     0.979000000
H     1.494000000     0.926000000     1.831000000
C     0.285000000    -0.639000000     1.079000000
H     0.311000000    -1.289000000     1.950000000
C    -0.585000000    -1.121000000     0.079000000
H    -1.032000000    -2.020000000     0.253000000
C    -0.744000000    -0.314000000    -1.094000000
H    -1.438000000    -0.612000000    -1.876000000
C     0.057000000     0.858000000    -1.228000000
H     0.187000000     1.356000000    -2.185000000
C     0.728000000     1.377000000    -0.113000000
C     1.538000000     2.688000000    -0.336000000
O     2.202000000     3.214000000     0.580000000
O     1.392000000     3.389000000    -1.335000000
O    -2.220000000     2.205000000    -3.757000000
H    -2.577000000     2.848000000    -4.370000000
H    -1.455000000     1.845000000    -4.206000000
O    -1.116000000     4.122000000    -1.847000000
H    -1.474000000     3.366000000    -2.314000000
H    -0.264000000     3.824000000    -1.530000000
O    -5.116000000    -5.389000000    -0.242000000
H    -4.481000000    -5.681000000    -0.896000000
H    -4.744000000    -4.579000000     0.107000000
O    -1.222000000     3.739000000     3.780000000
H    -0.661000000     2.977000000     3.926000000
H    -2.057000000     3.369000000     3.494000000
O     0.081000000    -3.108000000    -3.080000000
H    -0.316000000    -3.885000000    -2.686000000
H    -0.664000000    -2.583000000    -3.375000000
O     5.551000000     1.597000000     5.189000000
H     5.514000000     2.540000000     5.352000000
H     5.150000000     1.488000000     4.327000000
O     1.369000000    -4.277000000     0.083000000
H     1.347000000    -4.781000000    -0.731000000
H     1.195000000    -3.376000000    -0.189000000
O    -6.291000000    -1.480000000    -2.723000000
H    -5.886000000    -0.846000000    -3.315000000
H    -5.570000000    -2.048000000    -2.452000000
O    -3.722000000    -0.654000000     3.947000000
H    -4.419000000    -1.155000000     3.524000000
H    -3.110000000    -1.317000000     4.267000000
O    -5.000000000    -2.477000000     0.943000000
H    -5.282000000    -1.564000000     0.886000000
H    -5.341000000    -2.780000000     1.785000000
O    -5.957000000     0.612000000     1.293000000
H    -6.150000000     1.233000000     0.591000000
H    -6.813000000     0.387000000     1.656000000
O     0.417000000     7.185000000    -3.509000000
H     0.635000000     7.782000000    -4.225000000
H    -0.253000000     6.608000000    -3.874000000
O    -0.394000000    -3.525000000    -6.413000000
H    -0.671000000    -2.815000000    -5.835000000
H    -0.113000000    -3.085000000    -7.216000000
O    -0.388000000    -4.991000000     3.348000000
H    -0.679000000    -4.187000000     3.778000000
H    -1.051000000    -5.641000000     3.581000000
O     1.049000000     5.827000000     0.403000000
H     0.427000000     5.632000000    -0.298000000
H     1.524000000     5.006000000     0.536000000
O     1.828000000    -3.343000000     5.721000000
H     1.299000000    -2.744000000     6.248000000
H     1.452000000    -4.207000000     5.891000000
O     3.911000000    -1.247000000     1.864000000
H     3.876000000    -1.694000000     1.018000000
H     3.341000000    -1.765000000     2.432000000
O     3.150000000    -0.548000000    -3.644000000
H     2.798000000    -1.095000000    -2.941000000
H     4.087000000    -0.490000000    -3.457000000
O     1.962000000    -1.737000000    -1.337000000
H     1.454000000    -2.125000000    -2.049000000
H     1.332000000    -1.197000000    -0.860000000
O     0.683000000     2.346000000     5.261000000
H     1.130000000     2.703000000     4.493000000
H     1.286000000     2.509000000     5.986000000
O    -3.079000000     2.954000000     0.291000000
H    -2.272000000     3.377000000    -0.002000000
H    -2.788000000     2.298000000     0.925000000
O    -1.622000000     5.342000000    -4.259000000
H    -2.542000000     5.086000000    -4.325000000
H    -1.436000000     5.325000000    -3.321000000
O     2.387000000    -3.274000000     2.569000000
H     2.158000000    -3.613000000     3.435000000
H     1.731000000    -3.652000000     1.983000000
O     4.059000000    -2.961000000    -0.437000000
H     3.442000000    -2.403000000    -0.912000000
H     3.537000000    -3.713000000    -0.159000000
O    -0.884000000     6.460000000     2.419000000
H    -0.235000000     6.181000000     1.772000000
H    -0.941000000     5.727000000     3.032000000
O     0.063000000     1.470000000    -4.995000000
H     0.868000000     1.757000000    -4.564000000
H     0.202000000     1.669000000    -5.921000000
O    -2.271000000     0.966000000     2.053000000
H    -1.489000000     0.421000000     1.969000000
H    -2.849000000     0.468000000     2.631000000
O     4.573000000     1.377000000     2.449000000
H     5.487000000     1.134000000     2.303000000
H     4.076000000     0.594000000     2.211000000
O     1.865000000     3.490000000     3.209000000
H     2.170000000     4.331000000     3.551000000
H     2.218000000     3.451000000     2.321000000
O     3.913000000     6.059000000    -3.545000000
H     4.346000000     6.876000000    -3.792000000
H     3.361000000     5.843000000    -4.296000000
O     2.338000000     7.955000000    -1.744000000
H     3.032000000     7.409000000    -2.113000000
H     1.564000000     7.744000000    -2.266000000
O     5.568000000     6.996000000     2.308000000
H     5.582000000     6.061000000     2.104000000
H     4.814000000     7.335000000     1.827000000
O     3.945000000     4.958000000    -1.057000000
H     3.055000000     4.738000000    -0.781000000
H     3.862000000     5.166000000    -1.988000000
O    -4.558000000     0.602000000    -4.189000000
H    -5.098000000     1.360000000    -4.412000000
H    -3.683000000     0.965000000    -4.048000000
O     2.002000000     2.578000000    -3.662000000
H     1.806000000     3.040000000    -2.847000000
H     2.460000000     1.785000000    -3.384000000
O    -0.906000000    -5.902000000     0.648000000
H    -0.156000000    -5.398000000     0.962000000
H    -1.278000000    -6.296000000     1.437000000
O    -1.212000000    -1.104000000    -5.013000000
H    -1.822000000    -0.872000000    -5.713000000
H    -0.760000000    -0.286000000    -4.808000000
O    -1.514000000    -2.301000000     4.534000000
H    -1.328000000    -3.025000000     5.131000000
H    -0.757000000    -1.721000000     4.617000000
O     2.585000000     4.578000000    -5.820000000
H     2.452000000     4.080000000    -5.014000000
H     2.535000000     3.924000000    -6.517000000
O     5.433000000    -0.136000000    -2.248000000
H     4.873000000     0.616000000    -2.053000000
H     6.125000000    -0.097000000    -1.588000000
O     1.613000000    -5.575000000    -2.530000000
H     1.917000000    -6.213000000    -3.175000000
H     1.789000000    -4.725000000    -2.934000000
O    -0.599000000    -8.136000000    -1.233000000
H    -0.687000000    -7.328000000    -0.727000000
H     0.325000000    -8.370000000    -1.151000000
O     4.723000000     4.179000000     1.807000000
H     4.284000000     4.408000000     0.987000000
H     4.405000000     3.300000000     2.011000000
O     0.570000000    -0.561000000     4.372000000
H     1.425000000    -0.526000000     3.943000000
H     0.448000000     0.316000000     4.735000000
O    -1.682000000    -4.628000000    -1.607000000
H    -1.412000000    -5.086000000    -0.812000000
H    -2.330000000    -5.207000000    -2.009000000
O    -3.991000000    -2.621000000    -1.906000000
H    -3.185000000    -2.958000000    -2.298000000
H    -3.758000000    -2.445000000    -0.994000000
O     4.670000000     2.201000000    -0.765000000
H     4.083000000     1.991000000    -0.038000000
H     4.479000000     3.116000000    -0.970000000
O    -2.644000000     6.079000000    -0.699000000
H    -2.407000000     6.994000000    -0.849000000
H    -2.078000000     5.585000000    -1.292000000
