158
-3038.40967
C     1.116000000     0.056000000     0.960000000
H     1.854000000     0.004000000     1.757000000
C     0.094000000    -0.892000000     0.904000000
H     0.046000000    -1.638000000     1.694000000
C    -0.900000000    -0.828000000    -0.053000000
H    -1.745000000    -1.559000000    -0.101000000
C    -0.829000000     0.146000000    -1.057000000
H    -1.562000000     0.143000000    -1.860000000
C     0.196000000     1.049000000    -0.941000000
H     0.314000000     1.783000000    -1.734000000
C     1.168000000     1.033000000     0.011000000
C     2.217000000     2.089000000     0.141000000
O     3.074000000     1.999000000     1.026000000
O     2.164000000     3.010000000    -0.616000000
O    -0.824000000     4.217000000    -3.643000000
H    -1.512000000     4.791000000    -3.979000000
H    -1.250000000     3.366000000    -3.539000000
O     0.346000000     4.704000000    -1.153000000
H     0.512000000     5.023000000    -2.040000000
H     1.003000000     4.021000000    -1.017000000
O    -5.390000000    -4.443000000     1.017000000
H    -5.828000000    -5.233000000     1.337000000
H    -5.031000000    -4.034000000     1.805000000
O    -1.634000000     3.189000000     0.642000000
H    -1.672000000     2.239000000     0.756000000
H    -0.744000000     3.358000000     0.335000000
O     6.416000000     4.261000000     2.402000000
H     6.810000000     4.609000000     1.603000000
H     5.473000000     4.332000000     2.255000000
O    -1.249000000    -5.441000000     0.106000000
H    -0.369000000    -5.106000000    -0.067000000
H    -1.104000000    -6.303000000     0.497000000
O    -5.739000000    -1.409000000    -2.294000000
H    -6.695000000    -1.461000000    -2.302000000
H    -5.472000000    -2.019000000    -1.606000000
O     0.177000000    -0.686000000    -4.590000000
H     0.168000000    -1.391000000    -3.943000000
H    -0.084000000    -1.108000000    -5.408000000
O    -3.636000000    -2.828000000     2.735000000
H    -3.678000000    -2.562000000     3.654000000
H    -3.304000000    -3.725000000     2.761000000
O     0.291000000    -1.664000000     4.293000000
H     0.438000000    -0.977000000     4.942000000
H     0.080000000    -2.441000000     4.810000000
O    -4.651000000     1.266000000    -2.976000000
H    -4.934000000     0.396000000    -2.693000000
H    -5.300000000     1.862000000    -2.602000000
O     2.813000000     4.472000000    -2.781000000
H     2.615000000     3.974000000    -1.988000000
H     3.368000000     3.889000000    -3.299000000
O    -3.470000000    -0.245000000     1.440000000
H    -3.356000000    -1.077000000     1.899000000
H    -3.088000000    -0.394000000     0.575000000
O    -7.023000000    -2.291000000     0.376000000
H    -7.906000000    -2.656000000     0.313000000
H    -6.479000000    -3.026000000     0.658000000
O     1.319000000    -6.171000000     1.213000000
H     1.700000000    -5.905000000     0.376000000
H     1.746000000    -7.003000000     1.417000000
O     2.952000000     7.144000000    -1.514000000
H     2.914000000     6.306000000    -1.976000000
H     2.187000000     7.133000000    -0.937000000
O     4.471000000     2.659000000    -3.928000000
H     3.781000000     2.077000000    -3.608000000
H     4.838000000     2.202000000    -4.685000000
O     4.616000000    -2.128000000     0.437000000
H     4.327000000    -2.353000000    -0.448000000
H     4.750000000    -1.180000000     0.411000000
O    -7.329000000     0.416000000     1.043000000
H    -7.615000000     0.524000000     1.950000000
H    -6.995000000    -0.481000000     1.003000000
O     1.250000000    -2.204000000    -2.219000000
H     1.960000000    -1.562000000    -2.203000000
H     0.661000000    -1.928000000    -1.517000000
O     2.770000000     1.787000000     3.583000000
H     2.946000000     1.998000000     2.666000000
H     1.982000000     2.287000000     3.796000000
O    -3.908000000     3.661000000    -1.040000000
H    -3.014000000     3.614000000    -0.702000000
H    -3.816000000     4.052000000    -1.909000000
O    -2.851000000    -5.575000000     3.459000000
H    -3.110000000    -6.174000000     2.760000000
H    -1.898000000    -5.649000000     3.498000000
O     0.910000000     3.949000000    -5.934000000
H     0.716000000     4.576000000    -6.632000000
H     0.401000000     4.260000000    -5.185000000
O     4.607000000    -3.698000000     4.641000000
H     4.788000000    -4.051000000     3.770000000
H     4.565000000    -2.751000000     4.512000000
O     2.143000000    -4.615000000    -1.055000000
H     1.513000000    -3.936000000    -1.296000000
H     2.933000000    -4.394000000    -1.548000000
O    -4.722000000     2.413000000     1.381000000
H    -5.051000000     1.517000000     1.318000000
H    -4.405000000     2.614000000     0.501000000
O    -1.385000000     0.671000000     3.225000000
H    -2.227000000     0.441000000     2.831000000
H    -0.873000000    -0.137000000     3.184000000
O     5.351000000     0.490000000     0.775000000
H     4.431000000     0.721000000     0.902000000
H     5.750000000     0.614000000     1.637000000
O     3.899000000     4.670000000     1.463000000
H     3.824000000     5.316000000     0.760000000
H     3.560000000     3.860000000     1.082000000
O     6.507000000     5.307000000    -1.395000000
H     6.113000000     4.456000000    -1.207000000
H     6.989000000     5.173000000    -2.211000000
O     5.471000000     2.788000000    -1.129000000
H     5.113000000     1.988000000    -0.744000000
H     4.837000000     3.033000000    -1.803000000
O     7.159000000    -0.258000000    -1.312000000
H     7.397000000    -0.025000000    -2.209000000
H     6.740000000     0.528000000    -0.963000000
O    -2.313000000     2.075000000    -3.873000000
H    -1.895000000     1.258000000    -4.146000000
H    -3.078000000     1.795000000    -3.369000000
O     4.299000000    -4.745000000     1.868000000
H     4.252000000    -3.825000000     1.607000000
H     3.473000000    -5.122000000     1.566000000
O    -0.152000000    -5.965000000     3.429000000
H     0.603000000    -6.113000000     3.998000000
H     0.218000000    -5.912000000     2.549000000
O     2.104000000     1.478000000    -3.987000000
H     1.694000000     2.326000000    -4.159000000
H     1.566000000     0.850000000    -4.469000000
O     3.356000000    -0.248000000    -2.573000000
H     4.182000000    -0.184000000    -3.052000000
H     2.796000000     0.417000000    -2.972000000
O     6.299000000     0.243000000     3.353000000
H     5.444000000     0.201000000     3.782000000
H     6.814000000    -0.443000000     3.776000000
O     0.009000000     2.655000000     4.882000000
H    -0.599000000     2.750000000     5.615000000
H    -0.503000000     2.213000000     4.204000000
O     1.570000000     5.067000000     4.084000000
H     2.234000000     4.968000000     3.403000000
H     0.772000000     4.709000000     3.695000000
O    -2.433000000    -4.167000000    -5.741000000
H    -2.454000000    -3.934000000    -4.813000000
H    -2.569000000    -3.338000000    -6.199000000
O    -1.032000000     4.757000000     2.789000000
H    -1.793000000     4.493000000     3.305000000
H    -1.161000000     4.337000000     1.939000000
O     3.742000000    -0.707000000     4.246000000
H     2.963000000    -1.161000000     3.923000000
H     3.530000000     0.222000000     4.159000000
O    -3.325000000    -3.928000000    -0.943000000
H    -2.539000000    -4.415000000    -0.693000000
H    -3.889000000    -3.972000000    -0.171000000
O    -3.820000000    -6.226000000    -2.534000000
H    -4.058000000    -6.753000000    -1.771000000
H    -3.612000000    -5.364000000    -2.175000000
O    -3.008000000    -2.601000000    -3.446000000
H    -3.081000000    -2.693000000    -2.496000000
H    -3.747000000    -2.043000000    -3.690000000
O     0.469000000     7.446000000     0.081000000
H     0.522000000     6.528000000     0.345000000
H    -0.361000000     7.512000000    -0.392000000
