158
-3050.67505
C    -0.654000000    -0.511000000     1.295000000
H    -1.196000000    -0.806000000     2.190000000
C    -0.910000000    -1.059000000     0.009000000
H    -1.676000000    -1.824000000    -0.090000000
C    -0.289000000    -0.488000000    -1.122000000
H    -0.328000000    -0.804000000    -2.181000000
C     0.676000000     0.539000000    -0.921000000
H     1.159000000     0.920000000    -1.817000000
C     0.962000000     1.037000000     0.294000000
H     1.642000000     1.874000000     0.428000000
C     0.372000000     0.528000000     1.461000000
C     0.582000000     1.195000000     2.819000000
O     0.097000000     0.656000000     3.850000000
O     1.249000000     2.189000000     2.890000000
O     1.396000000     4.536000000    -1.908000000
H     0.961000000     4.410000000    -2.752000000
H     0.686000000     4.746000000    -1.302000000
O    -0.033000000     3.754000000    -3.963000000
H     0.103000000     3.044000000    -4.591000000
H    -0.930000000     4.047000000    -4.124000000
O    -1.188000000    -4.235000000    -2.563000000
H    -0.791000000    -4.994000000    -2.991000000
H    -1.987000000    -4.069000000    -3.062000000
O    -0.791000000     0.875000000    -4.853000000
H    -1.733000000     0.966000000    -4.996000000
H    -0.677000000    -0.036000000    -4.583000000
O     0.119000000     6.435000000     5.084000000
H     0.509000000     5.938000000     4.365000000
H     0.788000000     6.431000000     5.769000000
O     2.402000000    -3.502000000     4.609000000
H     2.937000000    -2.915000000     4.074000000
H     1.502000000    -3.221000000     4.447000000
O    -5.046000000     0.163000000     3.531000000
H    -4.223000000     0.416000000     3.948000000
H    -5.471000000     0.993000000     3.314000000
O    -3.613000000    -3.949000000    -3.766000000
H    -3.911000000    -4.110000000    -4.661000000
H    -4.407000000    -4.016000000    -3.234000000
O     3.113000000    -4.347000000    -3.946000000
H     2.766000000    -4.115000000    -3.085000000
H     2.845000000    -5.257000000    -4.075000000
O    -1.716000000    -3.470000000     2.594000000
H    -2.604000000    -3.128000000     2.496000000
H    -1.311000000    -2.901000000     3.248000000
O    -0.368000000    -2.006000000    -4.660000000
H    -0.289000000    -2.081000000    -5.611000000
H     0.326000000    -2.568000000    -4.317000000
O    -0.857000000     6.743000000     1.560000000
H    -0.853000000     6.104000000     0.847000000
H    -0.373000000     6.316000000     2.267000000
O    -3.814000000     0.347000000    -5.313000000
H    -4.076000000    -0.245000000    -6.019000000
H    -3.957000000    -0.157000000    -4.512000000
O     4.594000000     0.289000000    -1.462000000
H     4.390000000     0.604000000    -2.342000000
H     5.204000000    -0.436000000    -1.603000000
O     1.223000000    -3.899000000    -5.960000000
H     2.011000000    -3.906000000    -5.417000000
H     0.935000000    -4.812000000    -5.976000000
O     3.194000000     6.218000000     2.920000000
H     3.588000000     7.056000000     3.160000000
H     3.684000000     5.569000000     3.424000000
O     0.913000000    -6.471000000    -0.874000000
H     0.118000000    -6.104000000    -0.489000000
H     1.514000000    -5.728000000    -0.937000000
O     3.813000000     2.878000000    -0.509000000
H     3.417000000     3.179000000    -1.327000000
H     4.015000000     1.955000000    -0.666000000
O    -4.141000000     2.977000000     1.109000000
H    -4.871000000     2.466000000     1.459000000
H    -3.752000000     2.412000000     0.441000000
O    -1.603000000     2.959000000    -1.653000000
H    -2.253000000     2.257000000    -1.692000000
H    -0.977000000     2.743000000    -2.344000000
O    -1.114000000    -4.874000000     0.064000000
H    -1.387000000    -4.112000000     0.575000000
H    -1.121000000    -4.569000000    -0.844000000
O    -3.258000000     0.892000000    -0.918000000
H    -2.449000000     0.420000000    -0.721000000
H    -3.650000000     0.403000000    -1.641000000
O    -2.580000000    -0.517000000     7.033000000
H    -2.532000000    -0.360000000     6.090000000
H    -1.853000000    -0.012000000     7.397000000
O    -5.796000000    -1.664000000     1.716000000
H    -5.586000000    -1.182000000     2.515000000
H    -4.961000000    -2.038000000     1.435000000
O     0.902000000     4.916000000     3.111000000
H     1.192000000     4.043000000     2.844000000
H     1.654000000     5.482000000     2.936000000
O     1.320000000     0.561000000     6.051000000
H     0.828000000     0.604000000     5.231000000
H     2.166000000     0.957000000     5.844000000
O    -2.516000000     0.588000000     4.562000000
H    -2.691000000     1.453000000     4.932000000
H    -1.611000000     0.637000000     4.255000000
O     4.217000000     0.782000000     4.685000000
H     5.127000000     0.991000000     4.475000000
H     3.763000000     0.811000000     3.842000000
O     2.705000000    -1.677000000    -0.264000000
H     2.147000000    -0.913000000    -0.121000000
H     3.264000000    -1.431000000    -1.001000000
O     1.611000000    -3.707000000    -1.689000000
H     2.054000000    -3.156000000    -1.044000000
H     0.685000000    -3.485000000    -1.599000000
O     3.817000000     2.436000000     2.301000000
H     2.893000000     2.439000000     2.550000000
H     3.849000000     2.944000000     1.490000000
O    -3.219000000     3.081000000     5.457000000
H    -3.992000000     3.099000000     6.022000000
H    -3.426000000     3.693000000     4.751000000
O     1.683000000     1.714000000    -5.172000000
H     1.841000000     2.234000000    -5.960000000
H     0.742000000     1.539000000    -5.185000000
O     3.740000000     2.320000000    -3.664000000
H     2.974000000     1.875000000    -4.027000000
H     3.704000000     3.201000000    -4.035000000
O     3.287000000     6.488000000    -0.903000000
H     2.709000000     5.789000000    -1.208000000
H     3.166000000     6.502000000     0.047000000
O    -0.101000000    -1.991000000     4.176000000
H    -0.149000000    -1.042000000     4.058000000
H    -0.522000000    -2.149000000     5.021000000
O     3.114000000    -1.756000000     2.565000000
H     3.799000000    -1.216000000     2.172000000
H     2.337000000    -1.583000000     2.034000000
O     5.042000000    -0.082000000     1.475000000
H     4.631000000     0.707000000     1.828000000
H     4.974000000     0.017000000     0.526000000
O    -5.256000000    -4.081000000    -1.420000000
H    -5.327000000    -4.183000000    -0.471000000
H    -6.088000000    -3.687000000    -1.682000000
O     6.685000000     3.315000000    -0.445000000
H     6.927000000     3.501000000     0.463000000
H     5.730000000     3.385000000    -0.457000000
O    -4.021000000    -1.281000000    -2.986000000
H    -4.906000000    -1.646000000    -3.019000000
H    -3.447000000    -2.047000000    -2.980000000
O    -0.871000000     5.401000000    -0.821000000
H    -1.280000000     4.536000000    -0.790000000
H    -1.202000000     5.794000000    -1.628000000
O     4.766000000     4.111000000     4.308000000
H     4.729000000     3.674000000     3.457000000
H     4.124000000     3.647000000     4.844000000
O     2.434000000    -0.577000000    -6.905000000
H     2.239000000    -0.027000000    -6.146000000
H     2.977000000    -1.283000000    -6.556000000
O    -0.008000000    -2.077000000    -7.578000000
H     0.455000000    -2.866000000    -7.297000000
H     0.601000000    -1.363000000    -7.392000000
O     2.441000000     3.842000000     5.848000000
H     1.649000000     3.494000000     5.438000000
H     2.152000000     4.646000000     6.281000000
O    -0.335000000     0.415000000     8.158000000
H     0.236000000     0.501000000     7.395000000
H    -0.337000000     1.286000000     8.556000000
O     2.046000000    -2.061000000     6.957000000
H     1.697000000    -1.353000000     6.416000000
H     2.005000000    -2.835000000     6.396000000
