158
-3075.96068
C    -0.047000000     0.809000000     1.211000000
H    -0.202000000     1.329000000     2.153000000
C    -0.327000000    -0.551000000     1.148000000
H    -0.489000000    -1.121000000     2.059000000
C    -0.267000000    -1.168000000    -0.086000000
H    -0.461000000    -2.256000000    -0.179000000
C     0.181000000    -0.482000000    -1.192000000
H     0.318000000    -1.037000000    -2.117000000
C     0.610000000     0.833000000    -1.038000000
H     0.956000000     1.348000000    -1.931000000
C     0.405000000     1.557000000     0.140000000
C     0.509000000     3.045000000     0.096000000
O    -0.233000000     3.612000000     0.890000000
O     1.215000000     3.589000000    -0.701000000
O    -2.194000000     8.401000000     1.516000000
H    -3.034000000     8.230000000     1.089000000
H    -1.676000000     7.614000000     1.348000000
O    -3.094000000    -5.623000000    -1.278000000
H    -2.460000000    -5.795000000    -1.975000000
H    -3.740000000    -6.325000000    -1.364000000
O     2.919000000    -3.455000000    -0.635000000
H     2.211000000    -3.313000000    -1.264000000
H     2.866000000    -2.705000000    -0.042000000
O     1.110000000    -5.969000000    -4.791000000
H     1.180000000    -5.394000000    -4.028000000
H     1.869000000    -6.548000000    -4.725000000
O     1.656000000    -1.060000000    -4.438000000
H     1.060000000    -0.370000000    -4.732000000
H     2.331000000    -0.598000000    -3.942000000
O    -0.990000000    -6.302000000    -2.789000000
H    -0.885000000    -7.204000000    -3.092000000
H    -0.176000000    -6.109000000    -2.324000000
O    -0.250000000     2.111000000     6.224000000
H     0.703000000     2.036000000     6.282000000
H    -0.526000000     1.316000000     5.769000000
O    -1.846000000     3.618000000     4.828000000
H    -1.181000000     3.126000000     5.309000000
H    -2.678000000     3.244000000     5.118000000
O    -2.092000000     6.275000000    -1.985000000
H    -2.172000000     7.218000000    -2.130000000
H    -2.424000000     6.140000000    -1.098000000
O     3.565000000     1.806000000    -0.298000000
H     4.326000000     2.119000000     0.191000000
H     2.956000000     2.543000000    -0.291000000
O    -1.307000000    -3.925000000    -4.946000000
H    -2.214000000    -3.971000000    -5.249000000
H    -1.155000000    -4.767000000    -4.518000000
O    -1.762000000    -3.386000000     1.947000000
H    -1.845000000    -2.668000000     1.318000000
H    -0.819000000    -3.472000000     2.088000000
O    -5.248000000    -2.935000000     1.226000000
H    -5.306000000    -3.779000000     1.673000000
H    -6.157000000    -2.699000000     1.040000000
O     3.392000000     2.051000000    -5.719000000
H     3.485000000     2.184000000    -6.662000000
H     2.448000000     1.961000000    -5.582000000
O    -4.813000000    -0.805000000     2.734000000
H    -5.665000000    -0.699000000     3.158000000
H    -4.849000000    -1.676000000     2.340000000
O     1.145000000    -3.516000000    -3.076000000
H     1.679000000    -2.767000000    -3.339000000
H     0.254000000    -3.276000000    -3.330000000
O     2.305000000    -3.331000000     4.226000000
H     2.222000000    -2.378000000     4.262000000
H     3.041000000    -3.485000000     3.633000000
O    -0.393000000     5.567000000    -3.778000000
H    -1.116000000     5.774000000    -3.186000000
H     0.213000000     6.302000000    -3.682000000
O    -4.601000000    -2.452000000    -1.456000000
H    -4.098000000    -3.218000000    -1.733000000
H    -4.896000000    -2.667000000    -0.571000000
O    -4.394000000    -4.479000000     3.232000000
H    -4.044000000    -3.616000000     3.453000000
H    -5.232000000    -4.523000000     3.693000000
O     0.104000000    -3.869000000     6.027000000
H     0.831000000    -3.446000000     5.570000000
H    -0.328000000    -4.394000000     5.353000000
O    -0.533000000     6.091000000     1.186000000
H    -0.244000000     5.213000000     0.938000000
H    -0.677000000     6.038000000     2.131000000
O    -1.193000000     6.043000000     3.754000000
H    -1.306000000     6.810000000     4.316000000
H    -1.320000000     5.296000000     4.338000000
O    -1.204000000    -0.159000000     4.869000000
H    -1.604000000     0.057000000     4.027000000
H    -1.718000000    -0.896000000     5.197000000
O    -3.515000000     5.499000000     0.441000000
H    -2.831000000     5.053000000     0.941000000
H    -4.324000000     5.055000000     0.694000000
O    -2.676000000     0.924000000     2.968000000
H    -2.768000000     1.768000000     2.525000000
H    -3.573000000     0.606000000     3.066000000
O     5.008000000     3.907000000     0.690000000
H     5.154000000     4.593000000     0.038000000
H     4.519000000     4.341000000     1.389000000
O    -2.633000000     3.516000000     2.090000000
H    -2.686000000     4.111000000     2.838000000
H    -1.698000000     3.468000000     1.888000000
O     4.929000000     5.710000000    -1.327000000
H     4.385000000     6.495000000    -1.399000000
H     4.648000000     5.156000000    -2.055000000
O     0.230000000     1.329000000    -4.633000000
H     0.012000000     1.735000000    -5.472000000
H     0.713000000     2.006000000    -4.158000000
O     1.000000000     6.010000000    -1.133000000
H     1.141000000     5.072000000    -1.005000000
H     0.180000000     6.194000000    -0.676000000
O     4.188000000    -6.165000000    -0.165000000
H     3.735000000    -6.100000000     0.676000000
H     3.882000000    -5.405000000    -0.660000000
O     1.845000000    -7.873000000    -1.246000000
H     1.330000000    -7.451000000    -0.558000000
H     2.728000000    -7.524000000    -1.132000000
O     4.157000000     4.142000000    -3.826000000
H     4.313000000     3.387000000    -4.393000000
H     3.212000000     4.138000000    -3.675000000
O     0.409000000    -7.068000000     1.108000000
H    -0.525000000    -6.892000000     1.222000000
H     0.768000000    -7.036000000     1.995000000
O     3.163000000    -0.957000000     0.761000000
H     3.578000000    -0.299000000     0.203000000
H     2.416000000    -0.503000000     1.152000000
O    -3.163000000     2.769000000    -0.847000000
H    -2.961000000     3.447000000    -0.203000000
H    -3.230000000     1.964000000    -0.334000000
O     3.417000000     0.039000000    -2.484000000
H     4.302000000     0.388000000    -2.384000000
H     2.983000000     0.244000000    -1.655000000
O    -2.638000000     0.906000000    -2.977000000
H    -1.722000000     0.770000000    -3.222000000
H    -2.596000000     1.384000000    -2.149000000
O     2.977000000     1.718000000     3.682000000
H     2.565000000     2.287000000     4.332000000
H     2.410000000     0.948000000     3.643000000
O     2.912000000     5.551000000     1.382000000
H     2.372000000     5.548000000     0.592000000
H     3.382000000     6.384000000     1.348000000
O     1.516000000     3.607000000    -3.303000000
H     1.430000000     3.597000000    -2.350000000
H     0.831000000     4.207000000    -3.599000000
O     1.533000000    -0.652000000     4.690000000
H     1.942000000    -0.067000000     5.328000000
H     0.593000000    -0.544000000     4.833000000
O    -3.346000000     0.335000000     0.282000000
H    -3.780000000    -0.504000000     0.124000000
H    -2.609000000     0.119000000     0.852000000
O     1.396000000     4.361000000     3.590000000
H     1.004000000     5.234000000     3.623000000
H     1.804000000     4.315000000     2.725000000
O    -2.460000000    -6.339000000     1.271000000
H    -3.041000000    -5.831000000     1.837000000
H    -2.612000000    -5.986000000     0.394000000
O    -1.463000000    -5.227000000     4.176000000
H    -2.391000000    -5.070000000     4.002000000
H    -1.198000000    -5.860000000     3.509000000
O     3.213000000     7.825000000    -1.159000000
H     3.117000000     8.443000000    -0.434000000
H     2.435000000     7.270000000    -1.105000000
