158
-3008.83664
C     0.486000000     0.919000000     0.949000000
H     0.884000000     1.491000000     1.784000000
C     0.547000000    -0.417000000     1.015000000
H     0.970000000    -0.821000000     1.932000000
C    -0.039000000    -1.247000000     0.116000000
H    -0.111000000    -2.393000000     0.259000000
C    -0.530000000    -0.705000000    -1.012000000
H    -0.945000000    -1.383000000    -1.753000000
C    -0.415000000     0.734000000    -1.189000000
H    -0.826000000     1.215000000    -2.073000000
C     0.049000000     1.593000000    -0.207000000
C     0.019000000     3.125000000    -0.202000000
O    -0.074000000     3.728000000     0.831000000
O    -0.343000000     3.601000000    -1.206000000
O    -4.457000000    -4.872000000     2.921000000
H    -4.420000000    -4.137000000     2.308000000
H    -4.603000000    -4.464000000     3.774000000
O    -1.328000000    -5.431000000     0.321000000
H    -1.367000000    -4.846000000    -0.436000000
H    -1.335000000    -4.844000000     1.077000000
O    -4.164000000    -2.316000000     1.787000000
H    -3.820000000    -1.465000000     2.059000000
H    -4.058000000    -2.324000000     0.836000000
O     3.233000000    -0.620000000    -0.670000000
H     2.813000000     0.076000000    -0.165000000
H     4.097000000    -0.718000000    -0.269000000
O    -4.479000000     4.405000000     2.748000000
H    -4.773000000     3.779000000     3.410000000
H    -3.639000000     4.724000000     3.078000000
O     0.745000000    -4.258000000    -3.500000000
H     1.230000000    -4.969000000    -3.082000000
H     1.057000000    -3.466000000    -3.062000000
O    -2.064000000     5.607000000     3.838000000
H    -1.714000000     5.569000000     4.728000000
H    -2.586000000     6.410000000     3.821000000
O    -3.549000000     4.120000000    -1.433000000
H    -2.648000000     4.181000000    -1.116000000
H    -4.082000000     4.434000000    -0.703000000
O     2.945000000     2.900000000    -1.751000000
H     2.478000000     2.572000000    -0.982000000
H     2.787000000     3.844000000    -1.742000000
O    -1.557000000    -3.486000000    -4.803000000
H    -1.402000000    -2.761000000    -5.408000000
H    -0.690000000    -3.695000000    -4.453000000
O     2.496000000    -6.815000000    -3.297000000
H     2.549000000    -6.252000000    -2.524000000
H     3.286000000    -6.610000000    -3.797000000
O     3.709000000    -1.707000000     3.266000000
H     4.139000000    -2.470000000     3.653000000
H     2.934000000    -2.064000000     2.831000000
O     0.549000000    -7.368000000     0.119000000
H     1.359000000    -7.109000000     0.558000000
H    -0.072000000    -6.672000000     0.331000000
O     0.352000000    -3.935000000     5.862000000
H    -0.176000000    -3.320000000     5.353000000
H    -0.225000000    -4.686000000     6.004000000
O     2.080000000     2.155000000     5.745000000
H     2.031000000     3.023000000     6.144000000
H     2.486000000     2.307000000     4.891000000
O    -5.538000000     1.955000000    -2.010000000
H    -4.863000000     1.407000000    -1.611000000
H    -5.308000000     2.847000000    -1.749000000
O     2.918000000    -1.893000000     6.444000000
H     2.767000000    -2.383000000     5.636000000
H     2.590000000    -2.467000000     7.137000000
O    -1.549000000    -2.167000000     5.049000000
H    -0.990000000    -1.459000000     5.370000000
H    -2.382000000    -2.040000000     5.503000000
O    -1.772000000     6.044000000     0.239000000
H    -1.081000000     5.452000000     0.537000000
H    -2.383000000     6.090000000     0.975000000
O     1.897000000    -3.667000000     2.316000000
H     0.944000000    -3.756000000     2.310000000
H     2.204000000    -4.413000000     2.831000000
O     2.466000000    -2.315000000    -2.574000000
H     2.560000000    -1.807000000    -1.768000000
H     3.091000000    -1.918000000    -3.181000000
O    -1.979000000     0.745000000     4.985000000
H    -1.743000000     1.303000000     4.244000000
H    -1.166000000     0.296000000     5.216000000
O    -2.418000000     0.201000000     1.638000000
H    -2.158000000     0.848000000     2.293000000
H    -1.592000000    -0.116000000     1.273000000
O     5.074000000     2.419000000     4.677000000
H     5.901000000     2.887000000     4.561000000
H     4.469000000     2.849000000     4.073000000
O     5.154000000     1.612000000    -0.545000000
H     4.386000000     1.911000000    -1.032000000
H     4.811000000     1.364000000     0.313000000
O    -1.809000000     2.631000000     2.950000000
H    -1.793000000     3.439000000     3.462000000
H    -1.076000000     2.718000000     2.341000000
O     4.741000000     5.344000000    -0.243000000
H     3.898000000     5.329000000     0.209000000
H     4.909000000     6.272000000    -0.408000000
O    -0.313000000     4.010000000    -6.261000000
H     0.424000000     4.424000000    -6.710000000
H    -0.258000000     4.333000000    -5.362000000
O    -4.433000000     0.997000000    -5.003000000
H    -4.341000000     0.913000000    -4.054000000
H    -4.690000000     1.909000000    -5.139000000
O     1.726000000     5.328000000    -1.862000000
H     1.483000000     5.561000000    -2.758000000
H     0.971000000     4.844000000    -1.528000000
O    -3.289000000     7.394000000    -2.021000000
H    -3.799000000     7.969000000    -1.451000000
H    -3.139000000     6.608000000    -1.496000000
O     4.219000000    -5.194000000     0.941000000
H     3.740000000    -4.420000000     1.240000000
H     3.819000000    -5.921000000     1.417000000
O     1.141000000     6.638000000     3.667000000
H     0.987000000     7.572000000     3.810000000
H     0.488000000     6.201000000     4.214000000
O     2.788000000    -4.968000000    -1.329000000
H     3.286000000    -5.025000000    -0.514000000
H     2.756000000    -4.031000000    -1.525000000
O    -2.301000000    -6.316000000     3.186000000
H    -3.016000000    -5.689000000     3.294000000
H    -2.672000000    -7.010000000     2.641000000
O    -0.723000000    -3.783000000     2.669000000
H    -1.391000000    -3.281000000     3.137000000
H    -0.910000000    -4.695000000     2.891000000
O     3.832000000     1.195000000     1.575000000
H     4.145000000     2.050000000     1.871000000
H     3.901000000     0.635000000     2.348000000
O    -4.220000000     4.216000000    -4.367000000
H    -5.169000000     4.250000000    -4.488000000
H    -4.103000000     3.959000000    -3.452000000
O     3.115000000     1.775000000    -4.555000000
H     2.890000000     2.005000000    -3.653000000
H     3.662000000     2.500000000    -4.857000000
O     4.494000000     3.636000000     2.101000000
H     3.668000000     4.106000000     1.988000000
H     5.156000000     4.325000000     2.161000000
O     2.286000000     5.172000000     1.460000000
H     1.683000000     4.592000000     0.995000000
H     1.727000000     5.673000000     2.054000000
O     5.438000000    -2.065000000     1.029000000
H     6.288000000    -2.226000000     1.439000000
H     4.804000000    -2.193000000     1.734000000
O    -0.373000000     4.748000000    -3.789000000
H    -0.280000000     4.091000000    -3.099000000
H    -1.128000000     5.272000000    -3.521000000
O    -3.541000000     0.002000000    -1.093000000
H    -3.106000000     0.152000000    -0.254000000
H    -3.731000000    -0.936000000    -1.100000000
O     0.273000000    -0.124000000     5.948000000
H     0.636000000     0.705000000     6.260000000
H     0.900000000    -0.785000000     6.239000000
O    -4.206000000    -2.678000000    -1.029000000
H    -3.532000000    -3.170000000    -1.499000000
H    -4.986000000    -3.231000000    -1.082000000
O    -2.452000000    -4.356000000    -2.305000000
H    -2.456000000    -5.293000000    -2.498000000
H    -1.950000000    -3.966000000    -3.021000000
O     0.659000000     7.906000000     0.166000000
H     1.247000000     7.162000000     0.039000000
H    -0.210000000     7.562000000    -0.042000000
