158
-3039.35402
C    -0.482000000    -0.717000000     1.246000000
H    -0.903000000    -1.313000000     2.051000000
C    -0.702000000    -1.105000000    -0.047000000
H    -1.328000000    -1.979000000    -0.208000000
C    -0.081000000    -0.400000000    -1.124000000
H    -0.129000000    -0.868000000    -2.087000000
C     0.701000000     0.694000000    -0.905000000
H     1.190000000     1.210000000    -1.728000000
C     0.856000000     1.190000000     0.368000000
H     1.401000000     2.122000000     0.495000000
C     0.248000000     0.495000000     1.464000000
C     0.259000000     1.038000000     2.829000000
O    -0.172000000     0.406000000     3.804000000
O     0.553000000     2.228000000     2.911000000
O     2.379000000    -4.309000000     2.836000000
H     1.925000000    -4.071000000     3.644000000
H     2.668000000    -5.210000000     2.979000000
O     3.130000000    -1.363000000     3.289000000
H     2.719000000    -1.054000000     4.096000000
H     2.668000000    -2.175000000     3.081000000
O     3.168000000    -1.193000000    -1.361000000
H     2.227000000    -1.113000000    -1.511000000
H     3.501000000    -1.623000000    -2.149000000
O     0.959000000    -3.997000000     0.369000000
H     1.280000000    -3.272000000    -0.167000000
H     1.493000000    -3.963000000     1.163000000
O    -1.615000000    -4.651000000    -2.733000000
H    -1.661000000    -5.412000000    -2.154000000
H    -2.223000000    -4.854000000    -3.444000000
O     0.013000000     5.378000000    -0.871000000
H    -0.168000000     4.915000000    -0.053000000
H    -0.128000000     6.301000000    -0.660000000
O    -1.197000000     4.014000000     2.324000000
H    -1.131000000     4.518000000     3.134000000
H    -0.542000000     3.322000000     2.419000000
O    -1.086000000     1.474000000    -6.902000000
H    -0.829000000     0.928000000    -6.159000000
H    -1.181000000     0.859000000    -7.630000000
O    -2.597000000     4.036000000    -5.151000000
H    -2.785000000     3.142000000    -4.865000000
H    -3.004000000     4.591000000    -4.486000000
O    -2.975000000    -6.243000000    -0.471000000
H    -2.468000000    -5.818000000     0.220000000
H    -3.081000000    -7.146000000    -0.171000000
O     2.534000000     4.001000000     2.674000000
H     2.016000000     3.203000000     2.566000000
H     2.847000000     3.963000000     3.577000000
O    -1.532000000     2.852000000    -1.624000000
H    -0.803000000     2.483000000    -1.127000000
H    -2.315000000     2.511000000    -1.191000000
O    -5.696000000    -0.106000000    -0.959000000
H    -5.458000000     0.431000000    -1.715000000
H    -6.004000000    -0.929000000    -1.338000000
O     0.922000000     5.357000000     6.554000000
H     1.046000000     5.588000000     7.474000000
H     0.897000000     4.400000000     6.548000000
O    -0.876000000     0.182000000    -4.569000000
H    -1.522000000    -0.489000000    -4.350000000
H    -1.236000000     0.990000000    -4.203000000
O     5.273000000     0.214000000     2.261000000
H     5.322000000     0.203000000     1.306000000
H     4.548000000    -0.375000000     2.471000000
O     1.971000000    -2.424000000    -6.038000000
H     2.530000000    -2.153000000    -6.766000000
H     1.085000000    -2.194000000    -6.318000000
O    -3.789000000    -2.793000000     1.841000000
H    -4.131000000    -1.901000000     1.901000000
H    -4.569000000    -3.346000000     1.795000000
O     2.816000000     6.229000000     1.406000000
H     2.795000000     5.360000000     1.807000000
H     2.982000000     6.062000000     0.478000000
O    -1.716000000    -4.641000000     1.672000000
H    -2.342000000    -3.939000000     1.848000000
H    -0.882000000    -4.190000000     1.540000000
O     0.686000000     2.453000000     5.677000000
H     0.536000000     2.359000000     4.736000000
H     1.514000000     1.999000000     5.834000000
O     3.946000000     2.486000000    -3.972000000
H     3.589000000     3.126000000    -4.588000000
H     3.176000000     2.086000000    -3.568000000
O    -3.856000000     4.542000000     1.500000000
H    -2.970000000     4.562000000     1.863000000
H    -4.305000000     3.862000000     2.002000000
O    -2.017000000    -1.086000000     4.971000000
H    -1.689000000    -0.658000000     5.762000000
H    -1.651000000    -0.573000000     4.251000000
O     2.940000000     0.611000000     5.955000000
H     3.799000000     0.768000000     5.564000000
H     3.116000000     0.520000000     6.892000000
O    -0.570000000    -3.141000000     4.279000000
H    -0.469000000    -3.936000000     4.802000000
H    -1.112000000    -2.566000000     4.819000000
O     5.303000000     1.548000000     4.607000000
H     4.941000000     1.047000000     3.876000000
H     6.233000000     1.636000000     4.401000000
O    -2.316000000     2.059000000     4.527000000
H    -2.668000000     1.891000000     5.401000000
H    -1.533000000     1.510000000     4.475000000
O     2.731000000    -5.790000000    -3.845000000
H     2.034000000    -6.405000000    -4.073000000
H     2.273000000    -4.978000000    -3.628000000
O     2.961000000     5.066000000    -1.373000000
H     2.321000000     4.682000000    -1.972000000
H     3.240000000     4.336000000    -0.820000000
O     5.523000000     2.099000000    -1.279000000
H     5.325000000     2.772000000    -0.627000000
H     5.006000000     2.350000000    -2.045000000
O    -0.017000000    -0.393000000     6.419000000
H    -0.029000000    -0.435000000     5.463000000
H     0.827000000     0.005000000     6.631000000
O    -0.642000000    -1.906000000    -6.799000000
H    -0.873000000    -1.512000000    -7.640000000
H    -1.393000000    -1.723000000    -6.234000000
O     0.189000000    -6.780000000    -1.314000000
H     0.447000000    -5.909000000    -1.014000000
H    -0.212000000    -7.189000000    -0.547000000
O    -3.233000000    -1.547000000    -6.015000000
H    -3.977000000    -1.965000000    -5.582000000
H    -3.629000000    -0.936000000    -6.636000000
O     5.504000000    -0.614000000    -0.378000000
H     4.664000000    -0.735000000    -0.822000000
H     5.739000000     0.297000000    -0.555000000
O    -5.227000000    -0.289000000     1.818000000
H    -4.822000000     0.537000000     2.080000000
H    -5.340000000    -0.210000000     0.871000000
O    -1.330000000     4.781000000     5.008000000
H    -1.631000000     3.878000000     4.909000000
H    -0.395000000     4.703000000     5.198000000
O    -3.553000000     1.339000000    -3.683000000
H    -3.385000000     0.453000000    -3.363000000
H    -4.490000000     1.351000000    -3.876000000
O     1.465000000     3.430000000    -2.730000000
H     0.560000000     3.492000000    -2.423000000
H     1.391000000     3.372000000    -3.683000000
O     4.011000000     3.743000000     5.414000000
H     4.455000000     2.958000000     5.094000000
H     4.313000000     3.838000000     6.317000000
O     3.918000000    -1.647000000    -4.252000000
H     3.296000000    -2.059000000    -4.851000000
H     3.590000000    -0.755000000    -4.142000000
O    -3.523000000    -3.587000000     5.027000000
H    -3.085000000    -3.784000000     4.198000000
H    -3.548000000    -2.630000000     5.063000000
O     1.900000000     0.804000000    -4.588000000
H     2.305000000     0.983000000    -5.437000000
H     0.984000000     0.620000000    -4.793000000
O     0.975000000    -3.578000000    -3.303000000
H     0.025000000    -3.626000000    -3.191000000
H     1.095000000    -3.343000000    -4.223000000
O    -4.465000000     2.310000000     2.948000000
H    -5.117000000     2.316000000     3.649000000
H    -3.679000000     1.944000000     3.354000000
O    -2.768000000    -1.096000000    -2.479000000
H    -3.524000000    -1.592000000    -2.165000000
H    -2.345000000    -0.775000000    -1.683000000
O     4.753000000     3.612000000     1.026000000
H     5.427000000     3.831000000     1.669000000
H     3.927000000     3.756000000     1.487000000
