158
-3054.95431
C     0.218000000     0.329000000     1.461000000
H     0.370000000     0.471000000     2.528000000
C     0.116000000    -0.992000000     0.903000000
H     0.086000000    -1.868000000     1.546000000
C    -0.076000000    -1.171000000    -0.462000000
H    -0.193000000    -2.178000000    -0.851000000
C    -0.076000000    -0.075000000    -1.293000000
H    -0.300000000    -0.184000000    -2.351000000
C     0.011000000     1.230000000    -0.751000000
H    -0.013000000     2.112000000    -1.386000000
C     0.096000000     1.458000000     0.613000000
C     0.245000000     2.893000000     1.128000000
O     0.585000000     3.084000000     2.305000000
O     0.257000000     3.790000000     0.327000000
O    -4.142000000    -1.946000000    -3.782000000
H    -5.039000000    -1.687000000    -3.570000000
H    -3.816000000    -1.242000000    -4.344000000
O    -0.262000000     5.418000000     6.839000000
H    -0.002000000     5.302000000     7.753000000
H     0.509000000     5.157000000     6.336000000
O    -2.722000000     0.286000000     0.457000000
H    -3.280000000     1.013000000     0.180000000
H    -2.022000000     0.259000000    -0.196000000
O    -1.010000000    -5.430000000    -2.975000000
H    -1.817000000    -5.779000000    -3.354000000
H    -0.969000000    -5.817000000    -2.100000000
O    -2.485000000     4.256000000     0.077000000
H    -2.325000000     4.678000000     0.921000000
H    -1.637000000     3.887000000    -0.170000000
O    -3.980000000     6.195000000    -1.574000000
H    -4.583000000     6.774000000    -1.109000000
H    -3.350000000     5.920000000    -0.908000000
O     1.784000000     4.539000000    -2.033000000
H     1.071000000     4.654000000    -1.404000000
H     1.427000000     4.859000000    -2.861000000
O    -2.898000000    -4.054000000    -5.707000000
H    -2.878000000    -3.196000000    -5.282000000
H    -2.974000000    -4.677000000    -4.984000000
O     2.492000000     7.684000000     1.936000000
H     2.086000000     8.517000000     1.693000000
H     2.125000000     7.051000000     1.319000000
O     4.406000000     0.765000000     4.764000000
H     4.614000000     0.836000000     5.696000000
H     3.450000000     0.755000000     4.732000000
O     1.006000000     1.639000000    -6.056000000
H     0.598000000     1.868000000    -5.221000000
H     1.937000000     1.553000000    -5.851000000
O     2.329000000     6.968000000     4.728000000
H     2.742000000     6.129000000     4.524000000
H     2.128000000     7.349000000     3.873000000
O    -0.399000000     6.362000000     0.960000000
H    -0.154000000     5.444000000     0.841000000
H    -0.243000000     6.533000000     1.888000000
O    -5.135000000    -0.760000000     1.389000000
H    -4.296000000    -0.535000000     0.987000000
H    -5.601000000     0.073000000     1.454000000
O    -3.051000000    -5.129000000    -0.585000000
H    -3.791000000    -5.451000000    -1.101000000
H    -3.170000000    -4.179000000    -0.563000000
O     3.692000000     1.419000000     0.845000000
H     3.157000000     2.137000000     1.183000000
H     4.581000000     1.625000000     1.134000000
O    -0.726000000     5.229000000    -3.285000000
H    -1.000000000     6.052000000    -2.880000000
H    -1.050000000     5.285000000    -4.184000000
O    -0.834000000    -6.715000000    -0.514000000
H    -1.620000000    -6.177000000    -0.416000000
H    -0.468000000    -6.767000000     0.369000000
O     2.748000000    -3.258000000     2.623000000
H     3.076000000    -3.812000000     1.915000000
H     2.955000000    -2.366000000     2.346000000
O     1.947000000     4.041000000     6.408000000
H     2.849000000     4.338000000     6.528000000
H     2.030000000     3.180000000     5.998000000
O    -2.910000000    -0.677000000    -5.911000000
H    -3.260000000    -0.075000000    -6.569000000
H    -2.031000000    -0.888000000    -6.224000000
O     2.791000000     4.552000000     0.877000000
H     1.909000000     4.187000000     0.804000000
H     2.871000000     5.135000000     0.122000000
O    -3.242000000     1.904000000    -3.250000000
H    -3.783000000     1.851000000    -2.463000000
H    -3.858000000     1.783000000    -3.973000000
O     3.164000000    -5.507000000     0.541000000
H     3.465000000    -5.978000000     1.318000000
H     2.209000000    -5.553000000     0.588000000
O    -0.510000000     7.600000000    -1.840000000
H    -0.670000000     7.208000000    -0.981000000
H     0.378000000     7.951000000    -1.782000000
O     2.585000000     7.453000000    -0.864000000
H     3.115000000     8.250000000    -0.840000000
H     3.138000000     6.811000000    -1.310000000
O    -3.010000000     4.783000000     2.961000000
H    -2.227000000     4.466000000     3.410000000
H    -3.086000000     5.698000000     3.230000000
O     3.847000000    -1.072000000    -0.783000000
H     4.684000000    -0.889000000    -1.210000000
H     3.808000000    -0.451000000    -0.056000000
O    -4.445000000     2.217000000    -0.684000000
H    -5.164000000     2.814000000    -0.892000000
H    -4.000000000     2.627000000     0.057000000
O     0.705000000    -6.385000000    -5.277000000
H     0.144000000    -6.248000000    -4.513000000
H     0.646000000    -7.324000000    -5.451000000
O     4.902000000    -3.766000000    -0.321000000
H     4.310000000    -4.383000000     0.109000000
H     4.355000000    -3.006000000    -0.518000000
O     3.479000000     1.077000000    -4.779000000
H     3.381000000     1.713000000    -4.070000000
H     3.474000000     0.226000000    -4.339000000
O     2.447000000    -3.916000000    -4.305000000
H     1.617000000    -4.175000000    -4.706000000
H     3.115000000    -4.230000000    -4.914000000
O     0.160000000    -6.745000000     1.896000000
H    -0.190000000    -6.201000000     2.601000000
H     0.580000000    -7.479000000     2.345000000
O    -2.765000000    -4.678000000     2.259000000
H    -2.498000000    -4.927000000     1.374000000
H    -3.546000000    -4.139000000     2.131000000
O    -1.027000000    -5.584000000     4.119000000
H    -1.282000000    -5.495000000     5.037000000
H    -1.808000000    -5.329000000     3.628000000
O     3.815000000     2.681000000    -1.876000000
H     3.606000000     2.140000000    -1.115000000
H     3.176000000     3.393000000    -1.847000000
O    -0.467000000     2.322000000    -3.899000000
H    -0.446000000     2.948000000    -3.175000000
H    -1.362000000     1.981000000    -3.895000000
O     1.328000000    -4.511000000     4.874000000
H     0.426000000    -4.830000000     4.847000000
H     1.573000000    -4.409000000     3.954000000
O     3.383000000    -1.382000000    -3.634000000
H     3.250000000    -1.304000000    -2.689000000
H     2.913000000    -2.180000000    -3.877000000
O    -1.914000000    -0.002000000     3.473000000
H    -1.722000000    -0.141000000     2.546000000
H    -2.643000000     0.618000000     3.477000000
O    -0.585000000     4.052000000     4.554000000
H    -0.322000000     3.435000000     5.236000000
H    -0.082000000     3.787000000     3.784000000
O    -3.715000000    -2.245000000    -1.039000000
H    -3.024000000    -1.596000000    -0.904000000
H    -3.848000000    -2.260000000    -1.987000000
O    -3.261000000    -2.069000000     4.325000000
H    -3.829000000    -2.211000000     3.568000000
H    -2.634000000    -1.407000000     4.034000000
O     1.767000000     1.909000000     4.505000000
H     1.021000000     1.604000000     5.020000000
H     1.374000000     2.346000000     3.749000000
O     3.387000000     4.315000000     3.509000000
H     3.161000000     3.501000000     3.959000000
H     3.217000000     4.133000000     2.585000000
O    -0.430000000     0.702000000     5.675000000
H    -1.074000000     0.659000000     4.967000000
H    -0.257000000    -0.213000000     5.896000000
O    -0.398000000     6.973000000     3.856000000
H     0.420000000     7.194000000     4.302000000
H    -0.731000000     6.211000000     4.330000000
