158
-3054.00758
C    -0.941000000    -0.153000000     1.081000000
H    -1.829000000    -0.338000000     1.681000000
C    -0.703000000    -1.009000000     0.032000000
H    -1.296000000    -1.916000000    -0.064000000
C     0.281000000    -0.834000000    -0.861000000
H     0.335000000    -1.517000000    -1.776000000
C     0.920000000     0.400000000    -0.849000000
H     1.616000000     0.584000000    -1.664000000
C     0.805000000     1.308000000     0.222000000
H     1.282000000     2.285000000     0.236000000
C    -0.246000000     1.077000000     1.170000000
C    -0.560000000     2.086000000     2.186000000
O    -1.558000000     1.871000000     2.860000000
O    -0.142000000     3.214000000     2.098000000
O     2.752000000    -5.600000000     1.408000000
H     3.278000000    -6.392000000     1.300000000
H     2.928000000    -5.086000000     0.620000000
O     0.430000000    -1.440000000    -7.616000000
H     1.263000000    -0.976000000    -7.700000000
H     0.356000000    -1.631000000    -6.681000000
O    -2.594000000     0.197000000     4.891000000
H    -2.687000000    -0.718000000     4.624000000
H    -2.060000000     0.594000000     4.204000000
O    -5.173000000    -0.265000000     2.890000000
H    -5.575000000     0.076000000     2.091000000
H    -5.652000000     0.163000000     3.600000000
O    -3.972000000     2.781000000     2.613000000
H    -3.071000000     2.533000000     2.406000000
H    -4.397000000     1.958000000     2.854000000
O     2.396000000    -1.301000000     1.115000000
H     1.550000000    -0.935000000     0.857000000
H     2.988000000    -0.549000000     1.129000000
O     1.934000000    -3.852000000    -2.949000000
H     2.733000000    -3.838000000    -3.475000000
H     2.215000000    -3.567000000    -2.079000000
O     4.613000000    -6.201000000    -2.067000000
H     3.868000000    -5.728000000    -2.439000000
H     5.346000000    -5.591000000    -2.144000000
O    -0.458000000     0.479000000    -4.784000000
H     0.012000000    -0.340000000    -4.944000000
H    -0.933000000     0.326000000    -3.967000000
O    -5.119000000     3.274000000     0.189000000
H    -5.906000000     3.808000000     0.080000000
H    -5.226000000     2.860000000     1.045000000
O    -3.083000000     5.314000000    -0.222000000
H    -3.932000000     4.882000000    -0.315000000
H    -2.925000000     5.332000000     0.722000000
O    -0.794000000    -6.803000000     0.046000000
H    -0.547000000    -6.049000000    -0.489000000
H    -1.752000000    -6.802000000     0.033000000
O    -3.192000000     1.631000000    -0.982000000
H    -2.512000000     2.097000000    -0.495000000
H    -4.014000000     1.981000000    -0.639000000
O    -3.511000000     5.333000000     2.735000000
H    -3.652000000     4.394000000     2.857000000
H    -3.705000000     5.718000000     3.590000000
O     5.458000000     1.731000000    -1.877000000
H     5.120000000     1.972000000    -2.740000000
H     5.764000000     2.556000000    -1.501000000
O    -1.925000000    -3.748000000     2.569000000
H    -1.128000000    -4.177000000     2.259000000
H    -2.458000000    -3.635000000     1.781000000
O     3.244000000     0.567000000    -6.070000000
H     3.288000000     0.105000000    -5.233000000
H     3.513000000    -0.086000000    -6.717000000
O     4.439000000     0.639000000     0.455000000
H     4.812000000     1.044000000     1.238000000
H     4.786000000     1.156000000    -0.272000000
O    -2.170000000     3.780000000     4.772000000
H    -1.881000000     3.173000000     4.090000000
H    -2.006000000     4.648000000     4.404000000
O     5.016000000     3.451000000     1.886000000
H     4.083000000     3.350000000     2.077000000
H     5.455000000     2.932000000     2.560000000
O    -2.050000000    -0.115000000    -2.630000000
H    -1.646000000    -0.668000000    -1.962000000
H    -2.570000000     0.518000000    -2.135000000
O    -3.215000000    -3.556000000    -0.484000000
H    -3.915000000    -3.174000000     0.046000000
H    -3.320000000    -3.152000000    -1.346000000
O    -0.394000000    -4.866000000    -1.586000000
H    -1.118000000    -4.971000000    -2.204000000
H     0.329000000    -4.533000000    -2.118000000
O    -2.581000000    -4.642000000    -3.344000000
H    -2.670000000    -4.446000000    -4.276000000
H    -3.127000000    -3.988000000    -2.908000000
O     1.973000000     5.533000000     5.199000000
H     2.395000000     5.183000000     4.414000000
H     1.364000000     6.194000000     4.869000000
O    -4.182000000     2.243000000     5.655000000
H    -3.885000000     1.334000000     5.619000000
H    -3.473000000     2.743000000     5.251000000
O     3.279000000    -3.111000000    -0.574000000
H     3.956000000    -2.594000000    -1.012000000
H     2.897000000    -2.512000000     0.067000000
O    -5.528000000    -2.958000000     1.088000000
H    -5.299000000    -2.452000000     1.868000000
H    -6.192000000    -2.429000000     0.646000000
O     0.554000000    -5.170000000    -5.165000000
H     1.116000000    -5.095000000    -4.393000000
H     0.767000000    -6.027000000    -5.534000000
O    -1.361000000     3.289000000     7.287000000
H    -0.409000000     3.275000000     7.186000000
H    -1.695000000     3.382000000     6.395000000
O    -3.753000000    -6.250000000    -0.028000000
H    -4.598000000    -6.212000000     0.419000000
H    -3.556000000    -5.339000000    -0.247000000
O     4.097000000     2.491000000    -4.147000000
H     3.195000000     2.508000000    -3.826000000
H     4.104000000     1.794000000    -4.803000000
O     4.673000000    -3.375000000    -3.806000000
H     5.116000000    -2.897000000    -4.507000000
H     5.313000000    -3.402000000    -3.094000000
O     0.491000000    -4.600000000     2.469000000
H     0.293000000    -5.235000000     3.157000000
H     0.926000000    -5.114000000     1.788000000
O     5.452000000    -1.451000000    -1.030000000
H     5.057000000    -0.729000000    -0.542000000
H     5.930000000    -1.954000000    -0.370000000
O     2.191000000     4.754000000    -1.819000000
H     1.664000000     4.408000000    -1.099000000
H     1.938000000     5.675000000    -1.881000000
O    -3.920000000    -2.101000000    -2.724000000
H    -3.279000000    -1.509000000    -3.117000000
H    -4.767000000    -1.770000000    -3.024000000
O    -0.075000000     4.415000000    -0.304000000
H    -0.990000000     4.514000000    -0.566000000
H    -0.112000000     3.914000000     0.511000000
O    -3.221000000    -0.834000000    -5.702000000
H    -2.434000000    -0.394000000    -5.382000000
H    -3.082000000    -0.917000000    -6.646000000
O     1.400000000     2.606000000    -3.738000000
H     1.453000000     2.982000000    -2.859000000
H     0.487000000     2.331000000    -3.826000000
O    -2.780000000    -2.547000000     4.851000000
H    -2.052000000    -2.793000000     5.421000000
H    -2.590000000    -2.979000000     4.019000000
O     0.569000000    -2.214000000    -5.153000000
H     0.964000000    -2.341000000    -4.290000000
H     0.523000000    -3.094000000    -5.527000000
O     0.188000000     6.189000000     2.839000000
H    -0.485000000     6.607000000     3.375000000
H    -0.105000000     5.282000000     2.751000000
O     0.938000000     0.632000000     4.263000000
H     1.049000000    -0.282000000     4.003000000
H     0.044000000     0.678000000     4.601000000
O     2.611000000     3.580000000     3.059000000
H     2.749000000     3.105000000     3.879000000
H     1.683000000     3.453000000     2.862000000
O     1.121000000    -2.101000000     3.496000000
H     0.680000000    -2.935000000     3.333000000
H     1.624000000    -1.936000000     2.698000000
O     1.861000000     6.981000000     1.102000000
H     1.392000000     6.454000000     1.750000000
H     1.389000000     6.830000000     0.283000000
O     3.645000000    -0.442000000    -3.500000000
H     3.653000000     0.085000000    -2.701000000
H     4.103000000    -1.248000000    -3.260000000
