158
-3049.59578
C    -0.831000000     0.077000000     1.221000000
H    -1.450000000     0.009000000     2.112000000
C    -0.731000000    -1.047000000     0.384000000
H    -1.345000000    -1.929000000     0.545000000
C     0.210000000    -0.975000000    -0.638000000
H     0.460000000    -1.759000000    -1.377000000
C     0.832000000     0.207000000    -0.981000000
H     1.492000000     0.115000000    -1.839000000
C     0.722000000     1.311000000    -0.199000000
H     1.158000000     2.252000000    -0.524000000
C    -0.204000000     1.273000000     0.862000000
C    -0.497000000     2.564000000     1.571000000
O    -0.907000000     2.441000000     2.702000000
O    -0.121000000     3.682000000     1.184000000
O     0.778000000     7.294000000     2.320000000
H     0.380000000     6.459000000     2.565000000
H     0.697000000     7.328000000     1.367000000
O     1.307000000    -4.359000000     0.617000000
H     0.720000000    -4.670000000    -0.073000000
H     2.071000000    -4.023000000     0.149000000
O     0.339000000     3.291000000     7.272000000
H     0.097000000     4.168000000     6.974000000
H    -0.250000000     2.705000000     6.797000000
O    -0.846000000     0.491000000    -3.935000000
H    -0.094000000    -0.091000000    -3.825000000
H    -0.618000000     1.036000000    -4.688000000
O     4.281000000     3.439000000    -0.268000000
H     3.385000000     3.708000000    -0.065000000
H     4.648000000     3.174000000     0.575000000
O    -3.913000000     1.885000000     1.843000000
H    -4.183000000     1.072000000     2.270000000
H    -3.052000000     2.077000000     2.215000000
O    -5.232000000     4.339000000     3.079000000
H    -4.295000000     4.154000000     3.027000000
H    -5.286000000     5.178000000     3.536000000
O     1.940000000     7.499000000    -0.390000000
H     1.482000000     8.338000000    -0.453000000
H     2.394000000     7.411000000    -1.228000000
O     4.057000000    -2.643000000     2.914000000
H     3.569000000    -2.869000000     3.706000000
H     3.530000000    -1.964000000     2.494000000
O     3.441000000    -4.088000000    -0.842000000
H     3.400000000    -4.437000000    -1.732000000
H     4.097000000    -3.392000000    -0.887000000
O     4.198000000    -5.504000000     1.430000000
H     3.570000000    -5.128000000     0.813000000
H     4.707000000    -4.754000000     1.739000000
O     1.457000000     3.943000000    -3.813000000
H     2.172000000     3.314000000    -3.718000000
H     1.065000000     3.995000000    -2.941000000
O    -4.013000000    -4.646000000     0.224000000
H    -4.346000000    -3.861000000    -0.210000000
H    -4.568000000    -4.746000000     0.997000000
O    -2.035000000     7.101000000     0.343000000
H    -2.031000000     6.346000000     0.931000000
H    -2.955000000     7.209000000     0.098000000
O     3.625000000     2.288000000    -2.656000000
H     3.967000000     2.864000000    -1.973000000
H     3.526000000     1.439000000    -2.226000000
O    -2.318000000    -3.398000000     2.867000000
H    -1.430000000    -3.758000000     2.864000000
H    -2.819000000    -3.993000000     2.309000000
O    -2.530000000     3.953000000    -0.835000000
H    -3.220000000     3.386000000    -1.178000000
H    -2.894000000     4.837000000    -0.896000000
O     2.154000000    -0.464000000     1.892000000
H     1.386000000    -0.400000000     1.325000000
H     1.999000000     0.184000000     2.579000000
O    -4.433000000     2.112000000     5.784000000
H    -3.621000000     2.597000000     5.634000000
H    -4.991000000     2.344000000     5.042000000
O     4.798000000     2.596000000     2.541000000
H     3.896000000     2.346000000     2.743000000
H     5.068000000     3.136000000     3.283000000
O    -2.426000000     0.973000000    -1.787000000
H    -2.122000000     0.369000000    -1.109000000
H    -1.735000000     0.956000000    -2.450000000
O    -0.681000000     6.498000000    -2.152000000
H    -1.029000000     6.871000000    -1.342000000
H    -0.457000000     5.596000000    -1.924000000
O    -5.269000000    -2.693000000    -1.260000000
H    -6.102000000    -2.359000000    -1.592000000
H    -4.913000000    -1.974000000    -0.738000000
O     2.101000000    -7.639000000    -0.883000000
H     1.474000000    -6.949000000    -1.099000000
H     1.676000000    -8.139000000    -0.185000000
O    -3.300000000    -3.365000000    -2.930000000
H    -3.227000000    -2.555000000    -3.435000000
H    -3.930000000    -3.160000000    -2.239000000
O    -2.247000000     4.052000000     4.621000000
H    -1.696000000     3.480000000     4.085000000
H    -1.673000000     4.340000000     5.331000000
O     4.662000000    -0.403000000    -0.149000000
H     5.415000000    -0.381000000     0.441000000
H     3.901000000    -0.385000000     0.432000000
O    -4.536000000    -0.452000000    -0.033000000
H    -4.024000000     0.057000000    -0.662000000
H    -4.059000000    -0.362000000     0.792000000
O     2.297000000    -3.816000000    -3.895000000
H     1.874000000    -4.665000000    -4.020000000
H     2.808000000    -3.683000000    -4.694000000
O    -0.715000000    -3.977000000    -3.753000000
H    -0.503000000    -3.852000000    -4.678000000
H    -1.595000000    -3.614000000    -3.657000000
O     1.486000000    -6.637000000    -4.568000000
H     0.776000000    -6.445000000    -3.955000000
H     2.231000000    -6.859000000    -4.009000000
O     4.330000000     5.833000000    -1.638000000
H     4.095000000     5.147000000    -1.013000000
H     5.286000000     5.865000000    -1.609000000
O     5.729000000     1.232000000    -4.415000000
H     5.017000000     1.861000000    -4.300000000
H     5.391000000     0.418000000    -4.042000000
O     0.009000000    -5.900000000    -1.964000000
H    -0.800000000    -6.230000000    -1.572000000
H    -0.278000000    -5.209000000    -2.561000000
O     5.055000000    -2.596000000    -5.217000000
H     5.044000000    -3.012000000    -4.355000000
H     5.452000000    -3.249000000    -5.793000000
O    -3.706000000    -1.228000000     5.980000000
H    -4.368000000    -0.979000000     6.625000000
H    -2.889000000    -0.868000000     6.325000000
O     1.488000000    -4.735000000     3.733000000
H     2.113000000    -5.421000000     3.499000000
H     1.153000000    -4.420000000     2.893000000
O    -2.857000000    -1.345000000    -4.708000000
H    -2.096000000    -0.771000000    -4.800000000
H    -3.596000000    -0.809000000    -4.996000000
O     0.162000000     4.096000000    -1.468000000
H     0.777000000     4.237000000    -0.748000000
H    -0.656000000     3.846000000    -1.038000000
O     1.376000000     0.971000000    -5.825000000
H     2.036000000     1.600000000    -6.119000000
H     1.877000000     0.297000000    -5.365000000
O    -3.469000000    -0.729000000     3.350000000
H    -3.526000000    -0.825000000     4.301000000
H    -3.143000000    -1.575000000     3.044000000
O     2.512000000    -0.978000000    -4.186000000
H     3.437000000    -0.961000000    -3.939000000
H     2.194000000    -1.822000000    -3.866000000
O    -2.566000000     4.947000000     1.861000000
H    -2.386000000     4.875000000     2.798000000
H    -2.035000000     4.259000000     1.461000000
O    -0.478000000     1.712000000     5.195000000
H    -0.070000000     0.859000000     5.344000000
H    -0.473000000     1.817000000     4.243000000
O     2.192000000     2.409000000     3.463000000
H     1.363000000     2.767000000     3.145000000
H     2.368000000     2.892000000     4.270000000
O     0.617000000    -0.598000000     5.639000000
H     0.412000000    -1.530000000     5.720000000
H     1.572000000    -0.557000000     5.696000000
O     2.286000000     4.928000000     0.526000000
H     1.571000000     4.752000000     1.137000000
H     2.203000000     5.859000000     0.321000000
O     5.066000000    -1.096000000    -2.872000000
H     5.020000000    -0.755000000    -1.979000000
H     5.663000000    -1.842000000    -2.813000000
