158
-3046.84744
C     1.011000000     0.176000000     1.060000000
H     1.876000000     0.100000000     1.714000000
C     0.499000000    -1.084000000     0.646000000
H     0.916000000    -2.044000000     0.942000000
C    -0.559000000    -1.073000000    -0.306000000
H    -0.994000000    -2.022000000    -0.686000000
C    -1.031000000     0.173000000    -0.889000000
H    -1.786000000     0.079000000    -1.666000000
C    -0.411000000     1.361000000    -0.487000000
H    -0.680000000     2.298000000    -0.968000000
C     0.682000000     1.368000000     0.435000000
C     1.365000000     2.727000000     0.815000000
O     2.177000000     2.756000000     1.695000000
O     0.951000000     3.755000000     0.334000000
O    -4.180000000    -0.870000000     0.043000000
H    -3.911000000    -0.490000000    -0.793000000
H    -3.868000000    -0.249000000     0.700000000
O     6.480000000     5.695000000     0.611000000
H     5.901000000     4.935000000     0.571000000
H     6.021000000     6.372000000     0.113000000
O     3.768000000    -3.427000000     2.438000000
H     3.235000000    -4.212000000     2.559000000
H     3.292000000    -2.740000000     2.906000000
O    -3.021000000     0.944000000     1.610000000
H    -2.375000000     0.572000000     1.011000000
H    -3.594000000     1.468000000     1.050000000
O    -3.837000000     5.512000000     0.107000000
H    -3.762000000     6.457000000    -0.021000000
H    -2.932000000     5.202000000     0.137000000
O     0.798000000     6.504000000    -4.237000000
H     0.590000000     5.748000000    -3.688000000
H     1.746000000     6.606000000    -4.155000000
O     0.456000000     7.987000000     0.711000000
H     0.723000000     8.714000000     1.273000000
H     0.967000000     7.241000000     1.025000000
O    -3.403000000    -3.694000000    -3.038000000
H    -2.698000000    -3.385000000    -3.608000000
H    -2.954000000    -4.036000000    -2.266000000
O     5.641000000    -0.467000000     3.637000000
H     4.873000000    -1.036000000     3.699000000
H     5.574000000     0.109000000     4.399000000
O     3.005000000    -1.302000000     3.963000000
H     2.109000000    -1.208000000     3.640000000
H     2.941000000    -1.129000000     4.902000000
O    -2.450000000     0.515000000    -4.365000000
H    -2.167000000    -0.391000000    -4.244000000
H    -2.024000000     0.996000000    -3.656000000
O     3.464000000     6.188000000     4.533000000
H     3.855000000     5.341000000     4.319000000
H     2.701000000     6.252000000     3.959000000
O    -2.228000000    -5.455000000     1.743000000
H    -2.958000000    -5.014000000     1.309000000
H    -1.502000000    -5.384000000     1.124000000
O    -1.527000000     4.082000000     1.028000000
H    -0.690000000     3.902000000     0.600000000
H    -1.633000000     3.368000000     1.656000000
O    -3.018000000    -2.255000000     2.803000000
H    -3.245000000    -2.334000000     1.876000000
H    -3.737000000    -1.751000000     3.184000000
O     4.854000000     3.425000000     0.443000000
H     3.986000000     3.174000000     0.757000000
H     5.444000000     2.775000000     0.823000000
O     5.767000000     0.290000000    -0.768000000
H     4.879000000    -0.053000000    -0.873000000
H     5.815000000     0.550000000     0.152000000
O    -6.771000000     0.075000000    -0.103000000
H    -6.573000000     0.925000000    -0.495000000
H    -5.924000000    -0.249000000     0.205000000
O    -4.409000000     0.699000000    -2.518000000
H    -4.782000000     1.554000000    -2.737000000
H    -3.750000000     0.545000000    -3.195000000
O     1.873000000     5.822000000     1.388000000
H     1.544000000     5.147000000     0.795000000
H     2.653000000     5.433000000     1.784000000
O    -2.543000000     3.642000000    -2.290000000
H    -2.864000000     3.226000000    -1.490000000
H    -3.302000000     3.659000000    -2.873000000
O     4.363000000    -4.783000000     0.091000000
H     4.338000000    -4.252000000     0.887000000
H     5.253000000    -5.134000000     0.065000000
O    -1.509000000     6.682000000     2.033000000
H    -1.590000000     5.786000000     1.708000000
H    -0.774000000     7.050000000     1.543000000
O     1.676000000    -4.497000000    -3.713000000
H     1.049000000    -3.871000000    -3.350000000
H     2.399000000    -4.503000000    -3.085000000
O     2.827000000     1.394000000    -2.393000000
H     2.830000000     2.330000000    -2.193000000
H     3.539000000     1.282000000    -3.023000000
O    -4.513000000     2.901000000    -0.105000000
H    -5.309000000     2.832000000    -0.631000000
H    -4.444000000     3.833000000     0.104000000
O    -1.217000000    -5.113000000    -1.703000000
H    -0.576000000    -5.183000000    -0.995000000
H    -1.038000000    -5.869000000    -2.263000000
O    -5.439000000    -1.826000000    -2.508000000
H    -4.928000000    -1.028000000    -2.377000000
H    -4.815000000    -2.454000000    -2.871000000
O     0.573000000     0.382000000    -3.462000000
H     1.324000000     0.552000000    -2.893000000
H     0.672000000     1.005000000    -4.181000000
O     0.097000000    -2.386000000    -3.080000000
H    -0.767000000    -2.428000000    -3.490000000
H     0.359000000    -1.470000000    -3.166000000
O     2.733000000     7.739000000    -1.592000000
H     1.817000000     7.615000000    -1.343000000
H     2.751000000     7.568000000    -2.533000000
O     0.457000000    -5.315000000     0.611000000
H     0.296000000    -4.809000000     1.407000000
H     1.286000000    -5.766000000     0.778000000
O     1.375000000     2.674000000    -4.707000000
H     2.198000000     3.032000000    -5.039000000
H     1.182000000     3.198000000    -3.930000000
O    -3.260000000    -4.345000000     4.492000000
H    -3.066000000    -3.616000000     3.903000000
H    -2.463000000    -4.876000000     4.486000000
O    -0.201000000    -3.234000000     3.020000000
H     0.081000000    -2.529000000     3.603000000
H    -1.132000000    -3.066000000     2.875000000
O     6.493000000     1.170000000     1.696000000
H     6.128000000     0.454000000     2.215000000
H     7.389000000     1.266000000     2.018000000
O    -2.000000000    -2.163000000    -5.467000000
H    -1.112000000    -2.367000000    -5.759000000
H    -2.520000000    -2.152000000    -6.271000000
O     3.692000000     3.934000000    -2.011000000
H     4.288000000     3.610000000    -1.336000000
H     3.784000000     4.886000000    -1.975000000
O     4.162000000    -3.364000000    -2.128000000
H     4.193000000    -3.758000000    -1.256000000
H     3.786000000    -2.496000000    -1.985000000
O     0.550000000     4.453000000    -2.559000000
H     0.926000000     4.382000000    -1.681000000
H    -0.395000000     4.382000000    -2.421000000
O     1.710000000    -4.332000000     5.208000000
H     1.908000000    -4.564000000     4.301000000
H     0.836000000    -3.945000000     5.171000000
O     2.413000000    -5.971000000     2.768000000
H     1.777000000    -6.673000000     2.906000000
H     3.265000000    -6.399000000     2.851000000
O     3.103000000    -0.944000000    -1.059000000
H     2.790000000    -0.089000000    -1.355000000
H     2.466000000    -1.218000000    -0.400000000
O    -1.399000000     1.885000000     3.407000000
H    -1.971000000     1.368000000     2.839000000
H    -1.990000000     2.495000000     3.849000000
O    -4.168000000    -3.685000000     0.606000000
H    -4.362000000    -2.805000000     0.282000000
H    -4.735000000    -4.260000000     0.092000000
O     0.512000000     3.611000000     3.992000000
H    -0.219000000     2.995000000     3.940000000
H     1.239000000     3.157000000     3.567000000
O     4.143000000     3.578000000     3.431000000
H     3.565000000     3.268000000     2.734000000
H     4.543000000     2.782000000     3.782000000
O     0.136000000    -1.032000000     4.518000000
H     0.018000000    -1.449000000     5.372000000
H    -0.496000000    -0.314000000     4.512000000
