158
-3040.37137
C     1.035000000     0.935000000    -0.224000000
H     1.960000000     1.487000000    -0.366000000
C     1.110000000    -0.088000000     0.733000000
H     1.992000000    -0.194000000     1.359000000
C    -0.009000000    -0.862000000     0.896000000
H     0.047000000    -1.666000000     1.621000000
C    -1.109000000    -0.686000000     0.071000000
H    -1.999000000    -1.309000000     0.103000000
C    -1.130000000     0.291000000    -0.918000000
H    -2.053000000     0.368000000    -1.486000000
C    -0.048000000     1.177000000    -1.051000000
C     0.032000000     2.267000000    -2.133000000
O     1.104000000     2.683000000    -2.435000000
O    -0.927000000     2.555000000    -2.822000000
O    -3.210000000    -2.286000000    -2.994000000
H    -2.648000000    -2.237000000    -3.767000000
H    -3.031000000    -3.151000000    -2.623000000
O     5.412000000     4.371000000    -2.174000000
H     6.285000000     3.995000000    -2.054000000
H     5.567000000     5.191000000    -2.643000000
O     0.298000000    -1.593000000    -2.662000000
H    -0.349000000    -2.006000000    -3.235000000
H    -0.209000000    -1.282000000    -1.913000000
O    -1.536000000     1.517000000     2.138000000
H    -1.488000000     0.979000000     1.347000000
H    -1.656000000     2.409000000     1.813000000
O    -2.081000000     0.882000000    -6.271000000
H    -2.490000000     1.356000000    -5.547000000
H    -1.972000000    -0.010000000    -5.942000000
O     6.852000000    -1.423000000     3.154000000
H     6.111000000    -1.281000000     2.566000000
H     7.038000000    -0.558000000     3.520000000
O    -1.212000000    -4.842000000    -0.386000000
H    -1.853000000    -4.942000000    -1.090000000
H    -1.118000000    -5.722000000    -0.021000000
O     3.095000000     3.291000000     4.331000000
H     3.501000000     2.687000000     3.709000000
H     2.552000000     3.863000000     3.790000000
O     4.666000000    -4.011000000    -0.591000000
H     4.654000000    -3.619000000     0.282000000
H     3.956000000    -3.572000000    -1.060000000
O    -3.207000000     2.488000000    -4.346000000
H    -2.340000000     2.520000000    -3.942000000
H    -3.815000000     2.449000000    -3.608000000
O     1.341000000    -3.588000000     0.238000000
H     0.404000000    -3.459000000     0.087000000
H     1.767000000    -3.066000000    -0.442000000
O    -1.956000000    -3.476000000     6.498000000
H    -1.138000000    -3.887000000     6.777000000
H    -2.312000000    -4.074000000     5.841000000
O    -1.098000000     5.004000000     0.126000000
H    -1.624000000     4.658000000    -0.595000000
H    -0.792000000     5.855000000    -0.188000000
O    -4.443000000    -0.161000000     1.431000000
H    -4.224000000     0.767000000     1.345000000
H    -4.163000000    -0.393000000     2.316000000
O     3.476000000     2.225000000    -3.965000000
H     2.648000000     2.229000000    -3.485000000
H     3.942000000     2.998000000    -3.646000000
O    -2.801000000     6.678000000    -3.235000000
H    -3.008000000     5.806000000    -2.900000000
H    -2.013000000     6.937000000    -2.757000000
O     4.905000000    -0.340000000     0.797000000
H     4.497000000    -1.206000000     0.807000000
H     5.127000000    -0.190000000    -0.122000000
O    -4.635000000    -0.268000000    -1.597000000
H    -4.476000000    -0.614000000    -0.719000000
H    -4.324000000    -0.956000000    -2.186000000
O    -1.418000000    -2.491000000    -4.985000000
H    -0.604000000    -2.308000000    -5.454000000
H    -1.984000000    -2.900000000    -5.639000000
O     2.252000000     4.684000000    -1.087000000
H     2.506000000     5.200000000    -1.852000000
H     2.001000000     3.833000000    -1.445000000
O     3.065000000    -0.755000000     3.767000000
H     3.369000000     0.019000000     3.293000000
H     3.409000000    -0.643000000     4.653000000
O    -4.830000000     2.580000000    -2.028000000
H    -4.678000000     1.680000000    -1.741000000
H    -5.489000000     2.917000000    -1.420000000
O     2.893000000    -1.882000000    -1.583000000
H     3.475000000    -1.166000000    -1.837000000
H     2.046000000    -1.648000000    -1.963000000
O     2.696000000     6.274000000    -3.270000000
H     1.784000000     5.984000000    -3.254000000
H     2.865000000     6.483000000    -4.188000000
O     4.421000000     0.251000000    -2.493000000
H     5.377000000     0.301000000    -2.482000000
H     4.155000000     0.905000000    -3.139000000
O    -3.817000000     4.529000000    -6.131000000
H    -3.775000000     3.746000000    -5.583000000
H    -4.347000000     5.147000000    -5.627000000
O     0.535000000     2.570000000    -5.397000000
H     0.754000000     2.744000000    -4.482000000
H    -0.108000000     1.863000000    -5.360000000
O    -1.720000000     0.505000000     4.579000000
H    -0.991000000    -0.114000000     4.555000000
H    -1.608000000     1.039000000     3.793000000
O     2.106000000    -6.389000000     0.054000000
H     1.882000000    -6.029000000    -0.804000000
H     1.992000000    -5.655000000     0.658000000
O     3.519000000    -2.843000000     1.696000000
H     3.296000000    -2.396000000     2.513000000
H     2.677000000    -3.139000000     1.348000000
O     2.907000000     1.486000000    -6.667000000
H     3.414000000     1.167000000    -5.920000000
H     2.211000000     2.014000000    -6.276000000
O     0.102000000    -1.502000000     4.082000000
H    -0.161000000    -2.156000000     3.434000000
H     0.888000000    -1.101000000     3.712000000
O    -6.889000000    -2.151000000     1.053000000
H    -6.207000000    -2.773000000     1.304000000
H    -6.630000000    -1.329000000     1.471000000
O    -1.638000000    -3.340000000     2.368000000
H    -0.990000000    -3.915000000     2.777000000
H    -1.739000000    -3.686000000     1.481000000
O    -4.271000000     2.427000000     1.486000000
H    -4.815000000     2.572000000     2.260000000
H    -3.984000000     3.303000000     1.228000000
O     4.108000000     3.803000000     0.447000000
H     3.397000000     4.318000000     0.066000000
H     4.728000000     3.681000000    -0.272000000
O     0.167000000    -4.716000000     3.691000000
H    -0.411000000    -5.387000000     4.054000000
H     1.003000000    -5.165000000     3.561000000
O     0.016000000     5.243000000    -3.393000000
H    -0.542000000     5.151000000    -4.165000000
H    -0.099000000     4.422000000    -2.914000000
O    -2.908000000    -4.944000000    -2.451000000
H    -3.507000000    -5.454000000    -1.906000000
H    -2.731000000    -5.507000000    -3.205000000
O    -0.509000000    -1.375000000     8.057000000
H    -0.391000000    -0.952000000     7.207000000
H    -1.398000000    -1.727000000     8.028000000
O    -7.103000000    -1.260000000    -1.544000000
H    -6.996000000    -1.940000000    -0.878000000
H    -6.258000000    -0.811000000    -1.565000000
O    -2.819000000     4.340000000    -1.964000000
H    -2.097000000     3.818000000    -2.315000000
H    -3.573000000     3.750000000    -1.983000000
O    -4.983000000    -3.815000000     2.280000000
H    -4.681000000    -4.721000000     2.217000000
H    -4.327000000    -3.382000000     2.827000000
O     2.566000000    -6.139000000     3.861000000
H     1.893000000    -6.459000000     4.462000000
H     3.338000000    -6.668000000     4.063000000
O     1.764000000    -0.710000000    -4.658000000
H     2.658000000    -1.041000000    -4.740000000
H     1.549000000    -0.827000000    -3.732000000
O     1.153000000     4.012000000     1.737000000
H     0.708000000     3.167000000     1.676000000
H     1.628000000     4.093000000     0.910000000
O    -3.405000000    -1.586000000     4.091000000
H    -2.906000000    -0.776000000     4.191000000
H    -2.805000000    -2.183000000     3.643000000
O     3.996000000     1.757000000     2.444000000
H     4.149000000     2.433000000     1.784000000
H     4.475000000     0.994000000     2.121000000
