158
-3018.46882
C     1.086000000     0.680000000    -0.748000000
H     1.921000000     1.240000000    -1.161000000
C     1.284000000    -0.264000000     0.217000000
H     2.280000000    -0.540000000     0.555000000
C     0.141000000    -0.915000000     0.836000000
H     0.280000000    -1.708000000     1.544000000
C    -1.117000000    -0.602000000     0.358000000
H    -2.029000000    -1.041000000     0.754000000
C    -1.313000000     0.391000000    -0.540000000
H    -2.345000000     0.523000000    -0.857000000
C    -0.202000000     1.135000000    -1.021000000
C    -0.341000000     2.142000000    -2.137000000
O     0.596000000     2.541000000    -2.824000000
O    -1.422000000     2.714000000    -2.209000000
O    -3.896000000    -2.305000000    -1.261000000
H    -3.190000000    -2.430000000    -1.895000000
H    -4.121000000    -3.190000000    -0.975000000
O     0.444000000    -2.501000000    -1.747000000
H    -0.419000000    -2.629000000    -2.141000000
H     0.280000000    -1.941000000    -0.988000000
O     0.376000000     1.656000000     2.495000000
H     0.287000000     1.304000000     1.609000000
H    -0.189000000     2.429000000     2.503000000
O    -4.580000000    -0.120000000    -5.368000000
H    -4.162000000     0.474000000    -4.744000000
H    -5.485000000    -0.189000000    -5.065000000
O     4.916000000    -2.761000000     2.987000000
H     4.402000000    -3.290000000     2.376000000
H     5.395000000    -2.148000000     2.428000000
O    -1.843000000    -5.384000000     0.690000000
H    -2.576000000    -5.140000000     0.125000000
H    -2.213000000    -6.021000000     1.301000000
O    -2.404000000     6.892000000     0.467000000
H    -2.863000000     7.515000000    -0.096000000
H    -2.728000000     6.035000000     0.190000000
O     3.742000000    -4.306000000     1.052000000
H     2.810000000    -4.469000000     1.201000000
H     3.781000000    -3.930000000     0.173000000
O    -3.813000000     1.575000000    -3.311000000
H    -2.890000000     1.749000000    -3.128000000
H    -4.285000000     2.030000000    -2.614000000
O    -2.951000000     1.489000000     4.682000000
H    -2.390000000     2.254000000     4.810000000
H    -2.380000000     0.741000000     4.860000000
O     0.751000000    -4.713000000     0.532000000
H    -0.170000000    -4.830000000     0.766000000
H     0.743000000    -4.028000000    -0.137000000
O     7.165000000    -0.718000000    -1.243000000
H     6.304000000    -1.053000000    -0.991000000
H     7.653000000    -0.669000000    -0.420000000
O    -1.236000000     4.086000000     2.150000000
H    -1.600000000     4.257000000     1.281000000
H    -1.894000000     4.425000000     2.756000000
O    -4.485000000     0.725000000     1.258000000
H    -4.217000000     1.563000000     1.634000000
H    -5.054000000     0.335000000     1.922000000
O     3.443000000     2.398000000    -3.522000000
H     2.504000000     2.504000000    -3.373000000
H     3.787000000     2.095000000    -2.682000000
O    -3.123000000     5.928000000    -2.350000000
H    -2.557000000     5.474000000    -2.974000000
H    -3.766000000     5.270000000    -2.087000000
O     4.572000000    -1.413000000    -0.104000000
H     4.006000000    -1.844000000    -0.745000000
H     4.071000000    -1.439000000     0.712000000
O    -5.863000000    -0.581000000    -0.894000000
H    -5.534000000     0.104000000    -0.312000000
H    -5.116000000    -1.167000000    -1.019000000
O    -2.005000000    -2.884000000    -2.769000000
H    -2.601000000    -2.627000000    -3.473000000
H    -1.746000000    -3.779000000    -2.990000000
O     3.445000000     2.696000000    -6.668000000
H     2.566000000     2.517000000    -6.334000000
H     4.016000000     2.121000000    -6.160000000
O     1.281000000     5.274000000    -2.473000000
H     0.627000000     4.582000000    -2.565000000
H     1.625000000     5.398000000    -3.358000000
O     0.275000000    -0.144000000     4.431000000
H     0.099000000     0.419000000     3.677000000
H     1.140000000    -0.515000000     4.257000000
O    -5.038000000     4.103000000    -2.193000000
H    -5.420000000     4.426000000    -1.377000000
H    -5.791000000     3.857000000    -2.730000000
O     2.577000000    -1.097000000     3.826000000
H     3.051000000    -1.928000000     3.780000000
H     3.250000000    -0.449000000     4.036000000
O     0.311000000     4.662000000    -6.245000000
H     0.320000000     3.900000000    -6.824000000
H    -0.251000000     5.296000000    -6.691000000
O    -4.099000000     4.307000000    -4.850000000
H    -4.179000000     3.389000000    -4.589000000
H    -3.212000000     4.554000000    -4.587000000
O     3.133000000    -3.308000000    -1.466000000
H     2.277000000    -3.012000000    -1.775000000
H     3.732000000    -3.096000000    -2.182000000
O    -0.356000000     7.355000000    -3.150000000
H    -1.213000000     6.941000000    -3.247000000
H     0.264000000     6.625000000    -3.152000000
O     4.830000000     1.563000000    -1.157000000
H     5.748000000     1.809000000    -1.274000000
H     4.863000000     0.701000000    -0.743000000
O     1.247000000     1.668000000    -5.421000000
H     0.928000000     2.362000000    -4.844000000
H     1.267000000     0.887000000    -4.867000000
O    -1.608000000    -0.893000000     6.122000000
H    -2.048000000    -1.569000000     5.607000000
H    -0.777000000    -0.749000000     5.669000000
O     1.002000000    -7.124000000    -0.956000000
H     0.780000000    -6.675000000    -1.771000000
H     1.085000000    -6.423000000    -0.310000000
O     1.894000000    -6.162000000     3.009000000
H     1.117000000    -6.270000000     3.557000000
H     1.562000000    -6.199000000     2.112000000
O     5.042000000     0.710000000    -5.577000000
H     4.431000000     0.759000000    -4.842000000
H     5.674000000     0.040000000    -5.319000000
O     0.708000000    -2.746000000     5.064000000
H     1.109000000    -2.204000000     4.384000000
H     1.151000000    -2.486000000     5.871000000
O    -7.019000000    -2.466000000     1.064000000
H    -6.982000000    -2.007000000     0.225000000
H    -6.107000000    -2.683000000     1.258000000
O    -1.767000000    -3.381000000     4.040000000
H    -1.733000000    -4.335000000     3.979000000
H    -0.889000000    -3.128000000     4.327000000
O    -4.352000000     3.166000000     2.186000000
H    -3.818000000     3.926000000     1.952000000
H    -4.399000000     3.192000000     3.142000000
O     2.971000000     3.745000000    -0.493000000
H     2.371000000     3.778000000    -1.238000000
H     3.796000000     3.430000000    -0.864000000
O    -1.332000000     4.646000000    -3.892000000
H    -0.656000000     4.403000000    -4.523000000
H    -1.291000000     3.964000000    -3.222000000
O     5.273000000     4.433000000    -4.240000000
H     5.238000000     4.545000000    -3.290000000
H     4.461000000     3.976000000    -4.458000000
O    -2.485000000     4.054000000    -0.189000000
H    -1.988000000     3.293000000    -0.489000000
H    -3.338000000     3.967000000    -0.615000000
O    -4.327000000    -2.594000000     1.674000000
H    -3.773000000    -2.935000000     2.377000000
H    -3.715000000    -2.371000000     0.974000000
O     0.811000000    -0.838000000    -4.025000000
H     1.496000000    -1.506000000    -4.027000000
H     0.152000000    -1.172000000    -3.417000000
O     4.895000000     0.750000000     3.702000000
H     4.443000000     1.315000000     3.075000000
H     5.341000000     1.357000000     4.293000000
O    -3.890000000    -2.464000000     5.214000000
H    -3.174000000    -2.793000000     4.670000000
H    -4.461000000    -3.222000000     5.342000000
O    -4.961000000    -0.058000000     3.891000000
H    -4.499000000    -0.842000000     3.595000000
H    -4.266000000     0.550000000     4.142000000
O     3.029000000     2.665000000     2.353000000
H     2.827000000     2.992000000     1.476000000
H     2.238000000     2.199000000     2.623000000
