158
-3042.12748
C     1.258000000     0.650000000     0.557000000
H     2.190000000     1.022000000     0.974000000
C     0.882000000    -0.693000000     0.657000000
H     1.502000000    -1.361000000     1.248000000
C    -0.335000000    -1.209000000     0.098000000
H    -0.613000000    -2.268000000     0.260000000
C    -1.182000000    -0.349000000    -0.610000000
H    -2.083000000    -0.662000000    -1.131000000
C    -0.856000000     1.021000000    -0.693000000
H    -1.515000000     1.685000000    -1.246000000
C     0.321000000     1.538000000    -0.106000000
C     0.741000000     2.994000000    -0.328000000
O     1.857000000     3.386000000     0.040000000
O    -0.086000000     3.778000000    -0.844000000
O    -4.819000000    -1.061000000    -0.478000000
H    -4.737000000    -0.735000000    -1.375000000
H    -4.711000000    -2.009000000    -0.557000000
O     4.560000000     5.886000000     1.569000000
H     5.136000000     5.519000000     0.898000000
H     4.069000000     6.570000000     1.114000000
O     2.402000000    -4.229000000     0.135000000
H     1.501000000    -4.350000000     0.434000000
H     2.937000000    -4.397000000     0.911000000
O    -3.956000000     1.066000000     1.145000000
H    -4.048000000     0.370000000     0.495000000
H    -4.514000000     1.773000000     0.821000000
O    -0.013000000     3.236000000    -3.446000000
H     0.140000000     3.568000000    -2.561000000
H     0.609000000     2.514000000    -3.541000000
O    -0.087000000     9.077000000    -0.139000000
H    -0.394000000     9.287000000     0.743000000
H     0.032000000     8.127000000    -0.131000000
O    -2.939000000    -5.535000000    -3.315000000
H    -2.090000000    -5.497000000    -3.756000000
H    -3.435000000    -6.189000000    -3.807000000
O     3.750000000    -1.032000000     2.464000000
H     3.309000000    -1.578000000     3.116000000
H     3.683000000    -0.143000000     2.812000000
O     2.285000000    -2.147000000     4.812000000
H     2.140000000    -2.992000000     5.238000000
H     2.627000000    -1.585000000     5.506000000
O    -2.495000000     1.715000000    -3.981000000
H    -1.675000000     2.144000000    -4.227000000
H    -2.866000000     2.279000000    -3.302000000
O     1.728000000     4.722000000     4.968000000
H     2.011000000     4.270000000     4.173000000
H     0.791000000     4.534000000     5.029000000
O    -0.338000000    -7.264000000     0.418000000
H    -0.651000000    -7.417000000    -0.473000000
H    -0.328000000    -6.311000000     0.509000000
O    -1.314000000     5.329000000     1.449000000
H    -1.185000000     4.939000000     0.585000000
H    -1.704000000     4.629000000     1.973000000
O     4.475000000     2.243000000    -0.057000000
H     3.682000000     2.772000000     0.034000000
H     4.745000000     2.061000000     0.843000000
O    -2.275000000     5.301000000    -4.378000000
H    -2.399000000     5.072000000    -3.457000000
H    -1.345000000     5.517000000    -4.448000000
O    -3.249000000     7.155000000     1.480000000
H    -2.691000000     6.377000000     1.482000000
H    -2.951000000     7.666000000     2.232000000
O     6.435000000    -0.968000000     1.360000000
H     5.630000000    -1.016000000     1.876000000
H     6.158000000    -0.607000000     0.518000000
O    -6.763000000     0.076000000     0.983000000
H    -7.042000000     0.842000000     0.481000000
H    -6.089000000    -0.333000000     0.440000000
O    -4.489000000     0.026000000    -2.819000000
H    -5.305000000     0.508000000    -2.954000000
H    -3.837000000     0.512000000    -3.323000000
O     0.220000000     6.465000000    -0.937000000
H     0.284000000     5.548000000    -0.669000000
H     0.898000000     6.567000000    -1.604000000
O    -4.400000000     3.049000000    -2.036000000
H    -4.599000000     2.912000000    -1.110000000
H    -5.209000000     3.406000000    -2.404000000
O     0.849000000     6.913000000     1.992000000
H     1.467000000     6.710000000     1.290000000
H     0.218000000     6.194000000     1.971000000
O    -0.088000000    -3.761000000    -2.965000000
H    -0.225000000    -2.912000000    -3.385000000
H     0.859000000    -3.893000000    -2.994000000
O     2.335000000     6.937000000    -2.956000000
H     2.719000000     6.085000000    -2.750000000
H     3.087000000     7.515000000    -3.081000000
O     5.665000000     0.183000000    -1.066000000
H     5.958000000     0.215000000    -1.977000000
H     5.433000000     1.087000000    -0.857000000
O    -2.404000000    -7.657000000    -1.652000000
H    -2.646000000    -6.774000000    -1.930000000
H    -1.622000000    -7.863000000    -2.164000000
O    -4.583000000    -3.375000000    -2.660000000
H    -4.574000000    -2.447000000    -2.895000000
H    -4.193000000    -3.816000000    -3.415000000
O     1.861000000    -0.173000000    -2.403000000
H     1.361000000    -0.254000000    -1.591000000
H     2.605000000    -0.764000000    -2.285000000
O     0.421000000    -1.395000000    -4.287000000
H     0.578000000    -0.792000000    -5.013000000
H     0.962000000    -1.057000000    -3.573000000
O    -0.025000000    -4.491000000     1.622000000
H    -0.947000000    -4.692000000     1.784000000
H     0.339000000    -4.319000000     2.490000000
O     0.650000000     0.576000000     4.957000000
H     1.067000000    -0.247000000     4.702000000
H     1.351000000     1.226000000     4.906000000
O     6.164000000     4.416000000    -0.148000000
H     5.595000000     3.649000000    -0.086000000
H     6.386000000     4.475000000    -1.077000000
O    -2.154000000    -1.899000000     2.686000000
H    -2.241000000    -1.528000000     1.808000000
H    -2.629000000    -2.729000000     2.643000000
O     5.960000000     2.059000000     2.262000000
H     5.974000000     2.934000000     2.650000000
H     6.626000000     1.571000000     2.746000000
O    -2.986000000     7.626000000    -1.213000000
H    -2.914000000     6.694000000    -1.416000000
H    -3.078000000     7.658000000    -0.261000000
O     2.941000000     4.418000000    -2.230000000
H     3.362000000     3.664000000    -2.644000000
H     2.448000000     4.045000000    -1.499000000
O    -2.472000000    -4.374000000    -0.712000000
H    -2.923000000    -4.533000000    -1.541000000
H    -1.621000000    -4.018000000    -0.968000000
O     3.109000000    -2.866000000    -3.536000000
H     3.995000000    -2.968000000    -3.885000000
H     3.230000000    -2.407000000    -2.705000000
O    -2.374000000     4.990000000    -1.464000000
H    -1.536000000     4.608000000    -1.203000000
H    -2.987000000     4.256000000    -1.448000000
O     4.349000000    -4.783000000     2.210000000
H     4.716000000    -5.662000000     2.124000000
H     3.559000000    -4.903000000     2.737000000
O    -2.381000000    -2.870000000     5.435000000
H    -2.198000000    -3.798000000     5.289000000
H    -1.872000000    -2.417000000     4.763000000
O     2.118000000    -5.402000000     3.606000000
H     1.382000000    -5.476000000     4.213000000
H     2.618000000    -6.208000000     3.736000000
O     3.448000000    -1.856000000    -0.999000000
H     3.794000000    -1.195000000    -0.399000000
H     2.898000000    -2.414000000    -0.449000000
O    -2.441000000     3.227000000     2.863000000
H    -3.371000000     3.341000000     3.059000000
H    -2.352000000     2.295000000     2.663000000
O    -2.842000000    -4.642000000     2.221000000
H    -2.729000000    -4.837000000     1.291000000
H    -3.778000000    -4.764000000     2.379000000
O     3.049000000     1.368000000     4.148000000
H     3.273000000     2.077000000     3.545000000
H     3.418000000     1.641000000     4.988000000
O     2.752000000     4.091000000     2.475000000
H     2.346000000     3.933000000     1.622000000
H     3.567000000     4.549000000     2.270000000
O    -2.109000000     0.546000000     3.938000000
H    -1.165000000     0.691000000     4.011000000
H    -2.199000000    -0.086000000     3.225000000
