158
-3038.44715
C    -1.454000000    -0.344000000     0.038000000
H    -2.504000000    -0.415000000     0.309000000
C    -0.662000000     0.389000000     0.961000000
H    -1.210000000     0.949000000     1.715000000
C     0.721000000     0.616000000     0.826000000
H     1.239000000     1.275000000     1.480000000
C     1.295000000     0.236000000    -0.361000000
H     2.344000000     0.477000000    -0.512000000
C     0.559000000    -0.536000000    -1.261000000
H     1.089000000    -0.872000000    -2.149000000
C    -0.854000000    -0.841000000    -1.145000000
C    -1.656000000    -1.767000000    -2.007000000
O    -2.787000000    -2.095000000    -1.735000000
O    -1.154000000    -2.156000000    -3.072000000
O    -4.076000000    -2.596000000     0.618000000
H    -3.884000000    -2.326000000    -0.280000000
H    -4.353000000    -3.509000000     0.539000000
O     1.589000000     5.083000000     1.537000000
H     1.660000000     5.967000000     1.177000000
H     1.509000000     5.215000000     2.482000000
O    -0.024000000     2.834000000     5.975000000
H    -0.761000000     2.927000000     5.371000000
H     0.243000000     1.919000000     5.888000000
O    -3.248000000     2.112000000    -3.761000000
H    -3.398000000     2.486000000    -2.893000000
H    -2.297000000     2.031000000    -3.826000000
O     4.574000000     2.320000000    -2.849000000
H     3.929000000     1.743000000    -3.257000000
H     4.096000000     2.752000000    -2.141000000
O     2.537000000    -1.703000000     6.263000000
H     1.865000000    -2.378000000     6.356000000
H     3.048000000    -1.761000000     7.071000000
O     5.510000000     1.121000000     1.416000000
H     6.206000000     1.601000000     0.967000000
H     5.029000000     1.794000000     1.898000000
O     3.259000000    -1.797000000     2.410000000
H     3.510000000    -1.009000000     2.892000000
H     4.070000000    -2.300000000     2.335000000
O     0.799000000    -2.446000000     1.496000000
H     1.612000000    -2.118000000     1.879000000
H     0.446000000    -1.702000000     1.008000000
O    -1.448000000    -5.860000000    -4.866000000
H    -0.802000000    -5.199000000    -4.613000000
H    -1.526000000    -5.767000000    -5.815000000
O     3.243000000    -2.929000000    -0.508000000
H     3.938000000    -2.277000000    -0.421000000
H     2.468000000    -2.503000000    -0.143000000
O    -5.024000000     3.540000000     0.976000000
H    -4.261000000     3.973000000     1.360000000
H    -4.840000000     3.520000000     0.037000000
O     0.471000000    -3.908000000    -3.772000000
H     1.281000000    -3.425000000    -3.608000000
H    -0.225000000    -3.277000000    -3.589000000
O     2.953000000    -2.483000000    -3.363000000
H     3.265000000    -2.383000000    -2.464000000
H     3.739000000    -2.696000000    -3.867000000
O    -6.564000000     1.038000000    -0.383000000
H    -6.978000000     1.240000000    -1.222000000
H    -6.083000000     1.833000000    -0.155000000
O    -4.686000000    -0.569000000    -2.956000000
H    -4.006000000    -0.897000000    -2.368000000
H    -5.023000000     0.214000000    -2.519000000
O    -3.429000000     0.667000000     3.329000000
H    -3.050000000    -0.204000000     3.209000000
H    -4.331000000     0.579000000     3.023000000
O     0.100000000     5.550000000    -2.450000000
H     0.477000000     6.423000000    -2.347000000
H     0.449000000     5.050000000    -1.712000000
O    -1.326000000     2.620000000    -1.771000000
H    -1.347000000     2.027000000    -1.019000000
H    -0.759000000     3.339000000    -1.493000000
O     3.568000000     0.128000000     4.361000000
H     3.174000000     1.000000000     4.345000000
H     3.031000000    -0.366000000     4.980000000
O    -3.861000000     1.339000000     6.240000000
H    -4.285000000     0.699000000     5.669000000
H    -3.456000000     1.965000000     5.639000000
O    -5.290000000    -0.336000000     1.686000000
H    -5.609000000    -0.094000000     0.817000000
H    -4.862000000    -1.182000000     1.557000000
O    -0.676000000    -5.182000000     0.202000000
H     0.088000000    -5.443000000    -0.312000000
H    -0.411000000    -4.367000000     0.628000000
O     1.167000000     3.820000000    -0.653000000
H     2.023000000     3.401000000    -0.566000000
H     0.999000000     4.203000000     0.208000000
O     3.754000000     3.264000000    -0.119000000
H     4.667000000     3.145000000    -0.379000000
H     3.760000000     3.162000000     0.833000000
O    -2.741000000    -2.381000000     3.184000000
H    -3.388000000    -2.680000000     3.823000000
H    -3.151000000    -2.545000000     2.335000000
O    -3.185000000    -4.788000000    -1.758000000
H    -3.095000000    -3.883000000    -2.054000000
H    -2.342000000    -4.993000000    -1.354000000
O    -5.562000000    -6.266000000    -2.528000000
H    -5.526000000    -6.396000000    -3.476000000
H    -4.721000000    -5.863000000    -2.310000000
O    -2.534000000    -2.699000000    -5.218000000
H    -3.346000000    -3.206000000    -5.212000000
H    -2.171000000    -2.817000000    -4.340000000
O    -6.094000000    -2.857000000    -3.221000000
H    -5.635000000    -3.487000000    -3.775000000
H    -5.491000000    -2.117000000    -3.150000000
O     2.652000000     1.619000000     7.136000000
H     2.213000000     0.898000000     7.588000000
H     3.438000000     1.784000000     7.657000000
O    -2.247000000     2.797000000     4.048000000
H    -2.322000000     3.439000000     3.342000000
H    -2.536000000     1.974000000     3.655000000
O     4.417000000     3.295000000     2.717000000
H     3.803000000     3.115000000     3.429000000
H     4.505000000     4.248000000     2.711000000
O     3.243000000     0.214000000    -4.335000000
H     3.767000000    -0.386000000    -4.865000000
H     2.375000000    -0.187000000    -4.306000000
O    -0.154000000    -1.726000000     3.956000000
H     0.131000000    -1.823000000     3.048000000
H    -1.075000000    -1.985000000     3.947000000
O     0.654000000     5.352000000     4.213000000
H    -0.031000000     4.806000000     4.600000000
H     0.724000000     6.103000000     4.803000000
O     0.110000000    -0.378000000     6.335000000
H     0.889000000    -0.766000000     6.734000000
H     0.170000000    -0.618000000     5.410000000
O    -0.259000000    -3.464000000    -7.023000000
H    -0.653000000    -3.185000000    -7.850000000
H    -0.879000000    -3.173000000    -6.353000000
O     6.997000000    -0.863000000     2.293000000
H     7.784000000    -0.351000000     2.476000000
H     6.303000000    -0.210000000     2.200000000
O     2.026000000    -4.773000000    -6.044000000
H     1.784000000    -4.077000000    -6.655000000
H     1.344000000    -4.751000000    -5.374000000
O     0.511000000    -0.794000000    -4.896000000
H     0.005000000    -1.372000000    -4.325000000
H     0.179000000    -0.973000000    -5.775000000
O     6.670000000    -2.618000000    -1.921000000
H     7.461000000    -2.862000000    -1.439000000
H     6.163000000    -2.097000000    -1.299000000
O     3.153000000     4.864000000    -2.525000000
H     2.215000000     4.826000000    -2.712000000
H     3.210000000     4.797000000    -1.572000000
O    -3.776000000     0.889000000    -6.492000000
H    -3.697000000     0.785000000    -5.544000000
H    -4.018000000     1.807000000    -6.613000000
O     2.666000000     2.921000000     4.586000000
H     2.345000000     2.514000000     5.391000000
H     2.119000000     3.699000000     4.476000000
O     0.508000000     2.420000000    -3.945000000
H     0.752000000     1.527000000    -4.192000000
H     0.070000000     2.323000000    -3.099000000
O    -2.244000000     4.511000000     1.868000000
H    -2.577000000     5.385000000     1.666000000
H    -1.295000000     4.623000000     1.923000000
O     5.091000000    -0.633000000    -0.569000000
H     5.331000000    -0.198000000     0.249000000
H     5.256000000     0.024000000    -1.246000000
