158
-3057.30556
C    -0.757000000     0.630000000     1.098000000
H    -1.283000000     1.125000000     1.910000000
C    -0.186000000     1.383000000     0.076000000
H    -0.314000000     2.460000000    -0.002000000
C     0.477000000     0.654000000    -0.921000000
H     0.855000000     1.338000000    -1.719000000
C     0.517000000    -0.712000000    -0.970000000
H     1.098000000    -1.193000000    -1.753000000
C     0.025000000    -1.411000000     0.131000000
H     0.090000000    -2.494000000     0.065000000
C    -0.706000000    -0.787000000     1.188000000
C    -1.209000000    -1.560000000     2.385000000
O    -1.002000000    -2.715000000     2.475000000
O    -1.930000000    -1.021000000     3.180000000
O    -4.955000000    -4.418000000     0.802000000
H    -4.168000000    -4.964000000     0.826000000
H    -4.769000000    -3.759000000     0.134000000
O     4.410000000    -0.964000000    -4.276000000
H     3.948000000    -0.145000000    -4.098000000
H     5.305000000    -0.804000000    -3.975000000
O     1.031000000    -0.006000000     4.481000000
H     1.308000000    -0.083000000     5.394000000
H     0.256000000    -0.564000000     4.419000000
O     0.566000000    -6.425000000    -1.706000000
H     0.928000000    -6.060000000    -0.899000000
H     1.316000000    -6.490000000    -2.297000000
O     4.979000000     3.373000000    -5.052000000
H     4.547000000     3.485000000    -5.899000000
H     4.386000000     2.811000000    -4.553000000
O     2.628000000     4.088000000    -1.865000000
H     2.825000000     4.824000000    -2.444000000
H     1.672000000     4.052000000    -1.840000000
O     1.765000000    -6.986000000     4.448000000
H     1.543000000    -6.107000000     4.143000000
H     2.113000000    -7.428000000     3.674000000
O    -2.485000000     3.371000000    -0.776000000
H    -3.050000000     4.073000000    -0.454000000
H    -2.867000000     3.124000000    -1.619000000
O     2.785000000     2.093000000     4.004000000
H     2.236000000     1.333000000     3.810000000
H     2.704000000     2.212000000     4.950000000
O     1.758000000     5.911000000     0.677000000
H     1.497000000     5.162000000     0.141000000
H     1.140000000     5.910000000     1.408000000
O     5.034000000    -1.932000000     0.385000000
H     4.824000000    -1.018000000     0.190000000
H     5.602000000    -1.887000000     1.154000000
O    -4.570000000    -3.545000000    -2.060000000
H    -5.034000000    -4.381000000    -2.082000000
H    -3.648000000    -3.785000000    -1.964000000
O     2.439000000    -5.283000000     1.122000000
H     2.517000000    -6.115000000     1.587000000
H     1.872000000    -4.749000000     1.680000000
O    -4.937000000    -0.646000000     5.113000000
H    -4.981000000    -0.273000000     4.232000000
H    -4.098000000    -1.107000000     5.136000000
O    -4.410000000    -0.701000000     2.425000000
H    -3.495000000    -0.826000000     2.679000000
H    -4.513000000    -1.232000000     1.636000000
O    -1.239000000    -1.440000000     5.778000000
H    -1.488000000    -1.465000000     4.854000000
H    -1.959000000    -1.877000000     6.233000000
O     2.723000000    -3.861000000    -1.164000000
H     2.366000000    -4.326000000    -0.407000000
H     3.480000000    -3.388000000    -0.819000000
O    -3.559000000     2.240000000    -2.964000000
H    -4.449000000     2.592000000    -2.934000000
H    -3.421000000     2.017000000    -3.885000000
O     4.584000000     2.390000000    -0.802000000
H     4.107000000     3.106000000    -1.222000000
H     5.453000000     2.414000000    -1.204000000
O    -0.618000000     1.471000000    -6.099000000
H    -0.853000000     0.543000000    -6.105000000
H     0.102000000     1.540000000    -6.725000000
O     4.440000000     3.302000000     2.099000000
H     4.062000000     2.973000000     1.283000000
H     3.799000000     3.071000000     2.771000000
O     3.004000000     0.822000000     0.640000000
H     2.129000000     1.019000000     0.306000000
H     3.598000000     1.235000000     0.013000000
O    -2.050000000    -3.908000000    -1.580000000
H    -1.669000000    -4.015000000    -0.708000000
H    -1.296000000    -3.812000000    -2.161000000
O    -2.411000000    -0.023000000    -1.924000000
H    -1.578000000     0.039000000    -1.457000000
H    -2.618000000     0.879000000    -2.167000000
O    -0.156000000     4.472000000    -1.862000000
H    -0.537000000     5.315000000    -2.106000000
H    -0.872000000     4.000000000    -1.436000000
O    -3.200000000    -1.533000000    -4.198000000
H    -3.157000000    -2.392000000    -3.780000000
H    -3.141000000    -0.910000000    -3.473000000
O    -1.692000000     7.685000000     1.306000000
H    -1.176000000     6.884000000     1.213000000
H    -2.290000000     7.502000000     2.031000000
O    -0.773000000     3.574000000     3.842000000
H    -1.082000000     2.695000000     4.064000000
H     0.161000000     3.560000000     4.050000000
O     1.701000000    -0.446000000    -6.343000000
H     1.595000000     0.304000000    -6.928000000
H     0.829000000    -0.836000000    -6.292000000
O    -4.506000000     1.983000000     2.824000000
H    -3.814000000     1.882000000     3.478000000
H    -4.550000000     1.132000000     2.388000000
O    -0.958000000    -1.422000000    -6.005000000
H    -1.613000000    -1.222000000    -6.674000000
H    -1.453000000    -1.448000000    -5.186000000
O    -4.361000000    -1.490000000    -0.161000000
H    -4.736000000    -1.953000000    -0.911000000
H    -3.596000000    -1.037000000    -0.517000000
O    -2.455000000    -4.306000000     4.176000000
H    -2.342000000    -3.586000000     3.555000000
H    -1.613000000    -4.760000000     4.173000000
O    -0.631000000    -6.813000000     2.932000000
H    -0.216000000    -7.398000000     2.297000000
H    -0.337000000    -7.136000000     3.783000000
O     3.236000000    -1.027000000     2.552000000
H     2.393000000    -0.990000000     3.003000000
H     3.175000000    -0.354000000     1.874000000
O    -3.178000000     2.920000000    -5.697000000
H    -3.318000000     2.321000000    -6.430000000
H    -2.285000000     2.737000000    -5.404000000
O    -1.015000000    -4.620000000     0.780000000
H    -0.978000000    -3.927000000     1.438000000
H    -0.868000000    -5.427000000     1.273000000
O    -2.295000000     1.398000000     4.376000000
H    -2.177000000     1.123000000     5.285000000
H    -2.250000000     0.585000000     3.872000000
O     2.492000000    -3.138000000    -3.877000000
H     3.137000000    -2.446000000    -4.019000000
H     2.619000000    -3.400000000    -2.965000000
O    -0.210000000    -3.498000000    -3.570000000
H     0.616000000    -3.301000000    -3.128000000
H    -0.020000000    -3.367000000    -4.500000000
O    -3.128000000    -3.597000000     6.825000000
H    -2.375000000    -3.959000000     7.293000000
H    -3.086000000    -3.999000000     5.957000000
O    -2.068000000     0.784000000     6.884000000
H    -1.693000000    -0.069000000     6.664000000
H    -2.740000000     0.590000000     7.537000000
O    -4.564000000     4.466000000     1.109000000
H    -4.510000000     3.665000000     1.631000000
H    -4.571000000     5.173000000     1.755000000
O     0.873000000    -4.379000000     3.746000000
H     0.499000000    -3.612000000     3.312000000
H     1.242000000    -4.038000000     4.560000000
O     6.668000000     0.838000000    -3.329000000
H     6.868000000     0.842000000    -2.392000000
H     6.517000000     1.758000000    -3.545000000
O    -0.761000000     5.190000000     1.574000000
H    -0.715000000     4.788000000     2.442000000
H    -1.434000000     4.689000000     1.114000000
O     3.162000000     1.414000000    -4.526000000
H     2.525000000     2.128000000    -4.488000000
H     2.753000000     0.759000000    -5.093000000
O     1.205000000     3.148000000    -4.440000000
H     0.448000000     3.034000000    -5.015000000
H     0.827000000     3.331000000    -3.580000000
