158
-3036.13391
C    -1.369000000     0.055000000     0.614000000
H    -2.279000000     0.296000000     1.158000000
C    -0.168000000     0.140000000     1.290000000
H    -0.133000000     0.435000000     2.335000000
C     1.039000000     0.161000000     0.612000000
H     1.983000000     0.356000000     1.117000000
C     1.054000000    -0.113000000    -0.730000000
H     2.000000000    -0.098000000    -1.265000000
C    -0.131000000    -0.342000000    -1.390000000
H    -0.020000000    -0.582000000    -2.444000000
C    -1.392000000    -0.235000000    -0.721000000
C    -2.680000000    -0.435000000    -1.497000000
O    -3.762000000    -0.148000000    -0.950000000
O    -2.569000000    -0.877000000    -2.634000000
O     6.950000000     2.504000000    -0.793000000
H     6.353000000     2.141000000    -1.447000000
H     6.747000000     3.440000000    -0.778000000
O     3.959000000    -2.539000000    -1.858000000
H     3.729000000    -2.700000000    -0.943000000
H     3.256000000    -2.952000000    -2.359000000
O     4.896000000    -1.257000000    -4.100000000
H     4.680000000    -1.875000000    -3.402000000
H     5.161000000    -0.459000000    -3.641000000
O    -3.691000000    -0.569000000     3.549000000
H    -2.915000000    -0.182000000     3.955000000
H    -3.344000000    -1.230000000     2.951000000
O     4.305000000    -0.760000000     2.626000000
H     4.346000000    -1.678000000     2.894000000
H     5.036000000    -0.656000000     2.017000000
O    -4.585000000    -3.180000000    -2.178000000
H    -4.046000000    -3.376000000    -1.412000000
H    -4.334000000    -2.290000000    -2.426000000
O    -1.394000000     3.502000000     4.697000000
H    -2.243000000     3.064000000     4.765000000
H    -0.810000000     2.838000000     4.331000000
O    -5.084000000     4.097000000     0.541000000
H    -4.789000000     3.774000000    -0.311000000
H    -6.031000000     3.959000000     0.535000000
O     2.710000000     0.070000000     4.579000000
H     3.435000000    -0.050000000     3.965000000
H     2.621000000    -0.778000000     5.014000000
O    -5.791000000     1.841000000    -3.870000000
H    -5.080000000     2.016000000    -3.252000000
H    -5.701000000     2.522000000    -4.537000000
O    -4.299000000     2.414000000    -1.611000000
H    -3.440000000     2.832000000    -1.553000000
H    -4.193000000     1.582000000    -1.151000000
O     4.590000000     0.233000000    -0.744000000
H     4.058000000    -0.506000000    -1.040000000
H     5.265000000    -0.163000000    -0.192000000
O    -0.990000000    -3.174000000    -3.317000000
H    -1.207000000    -3.852000000    -2.677000000
H    -1.401000000    -2.381000000    -2.973000000
O    -5.982000000    -3.149000000    -5.261000000
H    -6.902000000    -3.034000000    -5.023000000
H    -5.533000000    -2.416000000    -4.840000000
O     5.006000000     1.585000000    -3.817000000
H     4.235000000     1.766000000    -3.279000000
H     4.784000000     1.933000000    -4.680000000
O    -0.973000000     0.069000000     4.858000000
H    -0.464000000     0.348000000     5.619000000
H    -0.584000000    -0.767000000     4.603000000
O    -4.040000000     2.279000000     4.860000000
H    -4.728000000     2.638000000     4.300000000
H    -4.217000000     1.339000000     4.885000000
O    -4.957000000    -0.736000000    -4.524000000
H    -4.263000000    -0.696000000    -3.866000000
H    -5.220000000     0.176000000    -4.650000000
O     3.794000000     3.004000000     2.834000000
H     4.423000000     3.724000000     2.798000000
H     4.325000000     2.215000000     2.723000000
O    -6.479000000    -0.126000000    -1.798000000
H    -5.764000000     0.072000000    -1.193000000
H    -6.577000000     0.670000000    -2.321000000
O    -5.414000000    -0.429000000     1.172000000
H    -4.793000000    -0.184000000     1.857000000
H    -4.911000000    -0.369000000     0.360000000
O    -1.956000000    -4.248000000    -0.943000000
H    -2.641000000    -4.426000000    -0.298000000
H    -1.298000000    -3.748000000    -0.462000000
O    -7.535000000     3.147000000    -0.334000000
H    -8.467000000     3.352000000    -0.413000000
H    -7.514000000     2.225000000    -0.079000000
O     2.406000000     3.772000000     0.666000000
H     2.795000000     3.384000000     1.449000000
H     3.002000000     4.482000000     0.428000000
O     2.295000000     6.420000000     3.539000000
H     2.420000000     5.540000000     3.183000000
H     2.954000000     6.953000000     3.093000000
O     0.227000000    -2.811000000     0.584000000
H     0.252000000    -1.896000000     0.304000000
H     1.066000000    -3.172000000     0.298000000
O     4.308000000     1.330000000     6.753000000
H     3.457000000     0.912000000     6.617000000
H     4.844000000     0.652000000     7.164000000
O    -7.075000000    -3.915000000    -1.048000000
H    -7.251000000    -4.699000000    -1.568000000
H    -6.306000000    -3.522000000    -1.460000000
O    -1.730000000     5.132000000     1.949000000
H    -1.278000000     4.376000000     1.574000000
H    -1.563000000     5.069000000     2.889000000
O    -0.289000000     3.513000000     0.345000000
H     0.639000000     3.571000000     0.574000000
H    -0.401000000     2.618000000     0.026000000
O    -2.125000000     4.322000000    -1.524000000
H    -1.524000000     3.829000000    -2.084000000
H    -1.654000000     4.420000000    -0.696000000
O    -7.670000000    -2.156000000     1.026000000
H    -6.877000000    -1.624000000     1.095000000
H    -7.486000000    -2.768000000     0.313000000
O    -0.933000000    -3.218000000    -6.381000000
H    -0.791000000    -3.171000000    -5.436000000
H    -1.688000000    -2.652000000    -6.539000000
O     5.311000000    -3.366000000     2.851000000
H     6.167000000    -3.358000000     2.422000000
H     5.499000000    -3.622000000     3.754000000
O     2.407000000    -2.047000000     6.127000000
H     3.013000000    -2.787000000     6.080000000
H     1.540000000    -2.441000000     6.026000000
O     1.853000000    -3.944000000    -3.355000000
H     1.787000000    -4.897000000    -3.426000000
H     0.964000000    -3.630000000    -3.514000000
O    -4.723000000    -4.230000000     0.757000000
H    -5.638000000    -4.056000000     0.539000000
H    -4.609000000    -5.165000000     0.585000000
O     6.624000000    -0.736000000     0.898000000
H     7.344000000    -0.192000000     0.579000000
H     6.998000000    -1.614000000     0.966000000
O    -2.845000000     1.586000000    -7.078000000
H    -3.620000000     1.026000000    -7.119000000
H    -2.739000000     1.779000000    -6.147000000
O     2.958000000     4.940000000    -1.764000000
H     3.677000000     4.880000000    -2.394000000
H     2.188000000     5.137000000    -2.297000000
O     3.028000000    -3.877000000     0.848000000
H     3.300000000    -4.700000000     0.443000000
H     3.767000000    -3.628000000     1.403000000
O    -0.161000000     2.965000000    -2.963000000
H     0.655000000     2.640000000    -2.581000000
H     0.118000000     3.481000000    -3.720000000
O     1.245000000     2.577000000     3.826000000
H     1.497000000     1.670000000     3.998000000
H     2.069000000     3.018000000     3.619000000
O    -1.628000000     1.059000000    -4.429000000
H    -1.182000000     1.599000000    -3.777000000
H    -2.037000000     0.358000000    -3.921000000
O    -0.137000000     0.553000000    -6.545000000
H    -0.842000000     0.711000000    -7.172000000
H    -0.550000000     0.656000000    -5.688000000
O     2.851000000     2.129000000    -1.891000000
H     2.634000000     2.748000000    -1.194000000
H     3.477000000     1.526000000    -1.490000000
O    -3.295000000    -3.313000000     2.938000000
H    -3.939000000    -3.493000000     2.254000000
H    -3.715000000    -3.608000000     3.746000000
O    -0.593000000    -3.608000000     3.093000000
H    -1.539000000    -3.467000000     3.134000000
H    -0.343000000    -3.307000000     2.220000000
