158
-3035.76539
C    -1.273000000    -0.271000000     0.700000000
H    -2.181000000    -0.544000000     1.233000000
C    -0.188000000     0.437000000     1.207000000
H    -0.132000000     0.703000000     2.260000000
C     0.898000000     0.785000000     0.417000000
H     1.694000000     1.291000000     0.987000000
C     0.932000000     0.406000000    -0.902000000
H     1.854000000     0.444000000    -1.478000000
C    -0.058000000    -0.465000000    -1.378000000
H     0.009000000    -0.903000000    -2.371000000
C    -1.195000000    -0.782000000    -0.582000000
C    -2.270000000    -1.710000000    -1.152000000
O    -3.287000000    -1.953000000    -0.465000000
O    -2.115000000    -2.269000000    -2.240000000
O    -1.768000000     4.323000000     4.833000000
H    -2.103000000     3.798000000     4.107000000
H    -1.213000000     4.982000000     4.417000000
O     6.654000000     3.140000000    -2.700000000
H     6.893000000     2.293000000    -3.076000000
H     5.728000000     3.050000000    -2.476000000
O     5.362000000    -1.443000000     2.127000000
H     4.643000000    -1.752000000     1.576000000
H     6.067000000    -1.244000000     1.511000000
O     1.843000000    -3.605000000    -1.977000000
H     2.360000000    -3.069000000    -1.376000000
H     2.082000000    -4.506000000    -1.760000000
O    -2.916000000     0.880000000     5.228000000
H    -2.623000000     1.782000000     5.094000000
H    -2.409000000     0.574000000     5.980000000
O     3.813000000     1.031000000     2.419000000
H     4.350000000     0.272000000     2.649000000
H     3.114000000     1.037000000     3.074000000
O    -2.260000000    -4.555000000     0.778000000
H    -2.831000000    -4.153000000     0.123000000
H    -1.502000000    -4.860000000     0.279000000
O     1.826000000     1.167000000     4.231000000
H     1.188000000     1.628000000     4.775000000
H     1.327000000     0.459000000     3.824000000
O     3.862000000    -2.414000000     0.140000000
H     4.197000000    -1.923000000    -0.611000000
H     4.166000000    -3.310000000    -0.005000000
O     2.894000000    -0.291000000    -4.334000000
H     2.472000000    -1.125000000    -4.130000000
H     2.177000000     0.279000000    -4.610000000
O    -5.173000000     1.848000000     1.550000000
H    -5.055000000     1.266000000     0.799000000
H    -6.122000000     1.931000000     1.642000000
O     1.565000000     6.590000000     2.227000000
H     2.210000000     5.890000000     2.138000000
H     1.121000000     6.403000000     3.055000000
O    -0.841000000    -1.767000000    -4.747000000
H    -1.474000000    -1.802000000    -5.465000000
H    -1.373000000    -1.840000000    -3.955000000
O    -0.429000000     1.992000000     5.633000000
H    -0.208000000     2.917000000     5.749000000
H    -0.715000000     1.704000000     6.500000000
O    -3.286000000     3.216000000     2.854000000
H    -3.965000000     3.257000000     3.528000000
H    -3.666000000     2.674000000     2.163000000
O    -4.072000000    -4.101000000    -2.478000000
H    -3.942000000    -4.859000000    -3.046000000
H    -3.220000000    -3.665000000    -2.462000000
O    -4.836000000     0.349000000    -0.791000000
H    -4.287000000     0.960000000    -1.283000000
H    -4.414000000    -0.502000000    -0.910000000
O    -4.703000000    -2.306000000     1.745000000
H    -4.363000000    -2.386000000     2.636000000
H    -3.956000000    -2.003000000     1.229000000
O     4.656000000    -0.110000000    -2.158000000
H     4.557000000     0.653000000    -1.588000000
H     3.913000000    -0.059000000    -2.758000000
O     3.363000000     4.404000000     2.045000000
H     2.510000000     3.979000000     2.133000000
H     3.997000000     3.696000000     2.159000000
O    -6.808000000    -4.333000000     2.533000000
H    -7.730000000    -4.081000000     2.469000000
H    -6.414000000    -4.009000000     1.723000000
O    -5.612000000     1.205000000    -3.335000000
H    -6.327000000     0.873000000    -3.876000000
H    -5.752000000     0.801000000    -2.478000000
O    -0.809000000    -4.634000000    -2.688000000
H     0.055000000    -4.298000000    -2.448000000
H    -1.406000000    -3.907000000    -2.515000000
O     2.388000000    -3.788000000     3.547000000
H     2.931000000    -4.077000000     2.813000000
H     1.749000000    -3.194000000     3.154000000
O     3.111000000     4.565000000    -2.201000000
H     3.064000000     4.101000000    -3.037000000
H     2.204000000     4.605000000    -1.899000000
O    -2.798000000    -5.973000000    -3.883000000
H    -2.058000000    -5.945000000    -3.276000000
H    -2.467000000    -5.561000000    -4.682000000
O    -4.391000000    -2.105000000    -4.752000000
H    -3.806000000    -2.432000000    -5.437000000
H    -3.959000000    -2.348000000    -3.933000000
O    -1.401000000     5.129000000     0.058000000
H    -1.767000000     5.769000000     0.668000000
H    -2.120000000     4.520000000    -0.111000000
O     2.812000000    -0.488000000     7.136000000
H     1.857000000    -0.480000000     7.201000000
H     2.998000000    -0.094000000     6.284000000
O    -6.724000000    -1.441000000     0.098000000
H    -6.188000000    -0.771000000    -0.326000000
H    -6.116000000    -1.906000000     0.672000000
O     1.843000000    -1.668000000     2.011000000
H     1.230000000    -1.122000000     1.517000000
H     2.416000000    -2.046000000     1.345000000
O     3.822000000     2.601000000     5.947000000
H     3.347000000     2.133000000     5.261000000
H     3.171000000     3.189000000     6.331000000
O    -5.113000000    -6.865000000     0.597000000
H    -5.126000000    -7.277000000    -0.267000000
H    -5.309000000    -5.944000000     0.426000000
O    -2.484000000     2.461000000    -0.461000000
H    -1.893000000     1.928000000     0.071000000
H    -2.411000000     2.094000000    -1.342000000
O    -5.278000000    -4.956000000    -5.192000000
H    -4.746000000    -5.180000000    -5.956000000
H    -4.965000000    -4.091000000    -4.928000000
O    -2.654000000     1.468000000    -2.997000000
H    -3.288000000     1.316000000    -3.697000000
H    -1.998000000     2.045000000    -3.389000000
O     1.783000000    -2.912000000    -4.559000000
H     1.859000000    -3.253000000    -3.668000000
H     0.888000000    -2.576000000    -4.610000000
O    -5.415000000    -4.262000000    -0.023000000
H    -4.785000000    -4.264000000    -0.744000000
H    -5.124000000    -3.549000000     0.546000000
O     5.476000000    -0.475000000     4.597000000
H     5.473000000    -1.065000000     5.350000000
H     5.394000000    -1.054000000     3.839000000
O     5.262000000     1.894000000    -0.019000000
H     6.131000000     1.903000000     0.381000000
H     4.668000000     1.685000000     0.702000000
O    -1.183000000    -3.276000000     3.136000000
H    -1.330000000    -3.701000000     2.291000000
H    -1.365000000    -3.958000000     3.783000000
O    -1.040000000     3.365000000    -4.089000000
H    -0.471000000     3.764000000    -3.431000000
H    -1.024000000     3.978000000    -4.824000000
O     0.518000000     3.735000000     2.193000000
H    -0.213000000     3.119000000     2.140000000
H     0.277000000     4.443000000     1.596000000
O     0.008000000    -0.621000000    -7.644000000
H     0.462000000    -0.398000000    -6.831000000
H    -0.256000000     0.222000000    -8.011000000
O     1.022000000     1.327000000    -5.446000000
H     0.202000000     1.603000000    -5.037000000
H     1.617000000     2.065000000    -5.311000000
O     0.062000000     4.875000000    -2.184000000
H     0.067000000     5.794000000    -2.451000000
H    -0.403000000     4.871000000    -1.347000000
O    -3.617000000    -2.019000000     4.397000000
H    -2.714000000    -2.174000000     4.119000000
H    -3.609000000    -1.131000000     4.754000000
O     0.773000000    -1.751000000     5.024000000
H     1.589000000    -2.184000000     4.771000000
H     0.112000000    -2.126000000     4.442000000
