158
-3025.16437
C    -0.984000000    -0.612000000     0.932000000
H    -1.570000000    -0.979000000     1.770000000
C     0.243000000     0.011000000     1.231000000
H     0.524000000     0.140000000     2.273000000
C     1.085000000     0.483000000     0.291000000
H     2.076000000     0.879000000     0.601000000
C     0.769000000     0.369000000    -1.046000000
H     1.494000000     0.722000000    -1.775000000
C    -0.484000000    -0.190000000    -1.421000000
H    -0.801000000    -0.389000000    -2.442000000
C    -1.373000000    -0.475000000    -0.423000000
C    -2.784000000    -0.921000000    -0.787000000
O    -3.544000000    -1.205000000     0.138000000
O    -3.211000000    -0.892000000    -1.904000000
O     5.931000000    -1.318000000    -3.439000000
H     5.236000000    -0.744000000    -3.118000000
H     5.798000000    -2.142000000    -2.969000000
O    -7.966000000    -3.531000000    -0.818000000
H    -7.285000000    -3.653000000    -1.479000000
H    -7.487000000    -3.327000000    -0.015000000
O     4.277000000    -0.403000000     1.944000000
H     5.097000000    -0.718000000     2.324000000
H     3.966000000    -1.132000000     1.408000000
O    -3.922000000    -3.861000000     0.933000000
H    -3.600000000    -3.091000000     0.463000000
H    -3.386000000    -4.583000000     0.606000000
O     0.822000000     5.548000000     3.462000000
H     0.880000000     5.079000000     4.294000000
H     1.166000000     6.421000000     3.654000000
O     2.845000000    -1.028000000     4.195000000
H     3.154000000    -0.666000000     3.365000000
H     2.978000000    -1.972000000     4.109000000
O     3.562000000    -2.921000000     0.453000000
H     3.247000000    -2.481000000    -0.337000000
H     4.442000000    -3.220000000     0.225000000
O     2.892000000    -2.831000000    -5.704000000
H     2.294000000    -2.435000000    -5.070000000
H     3.254000000    -2.088000000    -6.188000000
O    -4.674000000     2.933000000     0.149000000
H    -3.818000000     2.587000000    -0.107000000
H    -5.213000000     2.155000000     0.291000000
O     1.815000000     3.860000000     1.125000000
H     1.893000000     3.382000000     1.950000000
H     1.226000000     4.588000000     1.325000000
O    -2.072000000    -1.831000000    -4.389000000
H    -2.095000000    -0.940000000    -4.740000000
H    -2.244000000    -1.724000000    -3.453000000
O     0.219000000     0.416000000     5.072000000
H     0.846000000     0.771000000     4.442000000
H     0.213000000    -0.526000000     4.901000000
O    -2.627000000     2.225000000     5.163000000
H    -3.311000000     1.813000000     4.635000000
H    -1.808000000     1.955000000     4.747000000
O    -5.720000000    -2.239000000    -1.770000000
H    -5.391000000    -3.125000000    -1.919000000
H    -4.951000000    -1.743000000    -1.488000000
O    -5.533000000     0.352000000     0.341000000
H    -6.147000000     0.144000000    -0.362000000
H    -4.822000000    -0.280000000     0.234000000
O    -4.546000000    -1.242000000     2.568000000
H    -4.474000000    -0.314000000     2.793000000
H    -4.182000000    -1.302000000     1.685000000
O     2.778000000    -1.715000000    -1.843000000
H     3.137000000    -0.831000000    -1.769000000
H     2.088000000    -1.639000000    -2.503000000
O     5.314000000     2.212000000     2.166000000
H     6.052000000     2.057000000     2.756000000
H     4.920000000     1.349000000     2.043000000
O    -1.737000000    -5.290000000    -0.124000000
H    -1.037000000    -4.654000000     0.022000000
H    -1.495000000    -5.731000000    -0.938000000
O     2.315000000     2.059000000    -4.828000000
H     2.237000000     2.448000000    -5.699000000
H     1.553000000     1.485000000    -4.752000000
O     3.451000000     3.299000000    -2.782000000
H     2.880000000     2.964000000    -3.474000000
H     2.865000000     3.455000000    -2.042000000
O    -5.717000000    -1.741000000    -4.836000000
H    -5.251000000    -2.546000000    -5.062000000
H    -5.368000000    -1.494000000    -3.980000000
O    -4.295000000     1.317000000     2.947000000
H    -5.200000000     1.548000000     2.735000000
H    -3.820000000     1.431000000     2.124000000
O    -1.387000000     2.775000000     2.661000000
H    -1.766000000     3.599000000     2.355000000
H    -1.394000000     2.208000000     1.890000000
O     2.408000000    -1.477000000     7.065000000
H     2.239000000    -1.529000000     6.124000000
H     3.126000000    -0.849000000     7.144000000
O     0.427000000    -3.487000000     0.193000000
H    -0.097000000    -2.707000000     0.012000000
H     1.333000000    -3.180000000     0.157000000
O     4.121000000     0.713000000     5.908000000
H     3.784000000     0.235000000     5.150000000
H     4.531000000     1.494000000     5.535000000
O    -2.095000000     2.691000000    -0.287000000
H    -2.140000000     3.245000000    -1.067000000
H    -1.300000000     2.172000000    -0.408000000
O    -5.765000000    -4.014000000     3.538000000
H    -6.679000000    -3.869000000     3.293000000
H    -5.311000000    -3.226000000     3.240000000
O    -3.525000000     1.510000000    -2.680000000
H    -3.548000000     0.616000000    -2.339000000
H    -2.610000000     1.651000000    -2.922000000
O     1.098000000    -1.554000000    -3.903000000
H     0.324000000    -2.105000000    -4.019000000
H     0.904000000    -0.760000000    -4.403000000
O    -7.022000000    -2.204000000     1.491000000
H    -6.153000000    -1.804000000     1.515000000
H    -7.611000000    -1.519000000     1.806000000
O     5.917000000    -1.290000000     3.805000000
H     6.163000000    -1.993000000     3.205000000
H     5.756000000    -1.731000000     4.639000000
O     0.283000000    -2.323000000     5.165000000
H     0.409000000    -2.838000000     4.368000000
H    -0.285000000    -2.866000000     5.713000000
O     4.560000000     0.724000000    -2.224000000
H     4.731000000     1.644000000    -2.024000000
H     3.888000000     0.749000000    -2.906000000
O    -2.687000000    -4.437000000     3.537000000
H    -3.325000000    -4.176000000     2.873000000
H    -2.818000000    -5.379000000     3.639000000
O    -4.728000000    -4.598000000    -3.219000000
H    -4.300000000    -4.324000000    -4.030000000
H    -4.006000000    -4.788000000    -2.620000000
O    -4.651000000     3.189000000    -4.510000000
H    -4.205000000     2.752000000    -3.785000000
H    -4.927000000     2.477000000    -5.086000000
O     3.674000000    -4.335000000     2.693000000
H     3.396000000    -3.894000000     1.891000000
H     4.610000000    -4.490000000     2.570000000
O    -0.898000000     2.618000000    -2.849000000
H    -0.272000000     3.048000000    -2.267000000
H    -0.980000000     3.214000000    -3.594000000
O     4.621000000     4.529000000     1.054000000
H     3.677000000     4.501000000     1.210000000
H     4.930000000     3.658000000     1.304000000
O     1.563000000     2.387000000     3.793000000
H     0.873000000     3.040000000     3.678000000
H     1.845000000     2.495000000     4.702000000
O    -0.273000000    -3.644000000    -5.363000000
H    -0.627000000    -4.313000000    -5.949000000
H    -0.926000000    -2.944000000    -5.375000000
O    -2.969000000     0.485000000    -6.267000000
H    -3.921000000     0.481000000    -6.359000000
H    -2.666000000    -0.175000000    -6.891000000
O     0.004000000     0.856000000    -4.932000000
H    -0.273000000     0.746000000    -5.841000000
H    -0.720000000     1.324000000    -4.516000000
O     1.189000000     4.012000000    -1.487000000
H     0.709000000     4.831000000    -1.371000000
H     1.408000000     3.734000000    -0.598000000
O    -2.806000000    -2.774000000     5.663000000
H    -2.704000000    -3.105000000     4.771000000
H    -2.050000000    -3.123000000     6.136000000
O    -0.099000000    -4.182000000     3.117000000
H    -0.097000000    -4.224000000     2.161000000
H    -0.990000000    -4.426000000     3.366000000
