158
-3001.87270
C    -0.998000000     0.351000000     1.055000000
H    -1.715000000     0.771000000     1.755000000
C    -0.469000000     1.293000000     0.115000000
H    -0.798000000     2.328000000     0.162000000
C     0.345000000     0.791000000    -0.904000000
H     0.855000000     1.353000000    -1.684000000
C     0.617000000    -0.582000000    -0.894000000
H     1.324000000    -0.873000000    -1.666000000
C     0.182000000    -1.471000000     0.080000000
H     0.647000000    -2.450000000     0.172000000
C    -0.638000000    -0.978000000     1.107000000
C    -1.073000000    -1.767000000     2.303000000
O    -1.218000000    -2.955000000     2.097000000
O    -1.068000000    -1.260000000     3.396000000
O     5.211000000     4.175000000    -2.066000000
H     4.720000000     4.950000000    -2.336000000
H     5.331000000     3.674000000    -2.872000000
O    -2.297000000    -4.316000000     4.222000000
H    -1.607000000    -4.948000000     4.423000000
H    -1.902000000    -3.726000000     3.579000000
O    -2.380000000     3.684000000     3.283000000
H    -1.954000000     2.830000000     3.365000000
H    -3.136000000     3.632000000     3.869000000
O     1.634000000    -1.609000000     3.387000000
H     1.710000000    -1.934000000     4.284000000
H     0.722000000    -1.330000000     3.310000000
O    -2.460000000    -6.903000000     1.812000000
H    -2.880000000    -6.101000000     1.502000000
H    -2.032000000    -7.264000000     1.035000000
O    -1.033000000     2.776000000    -5.436000000
H    -0.721000000     3.055000000    -4.575000000
H    -0.298000000     2.947000000    -6.024000000
O     2.903000000     3.548000000    -5.399000000
H     2.465000000     3.927000000    -6.161000000
H     3.827000000     3.770000000    -5.519000000
O    -0.622000000     5.719000000     0.100000000
H    -0.686000000     6.460000000    -0.502000000
H    -1.527000000     5.440000000     0.235000000
O     2.328000000     3.287000000     1.657000000
H     2.059000000     3.598000000     0.792000000
H     2.589000000     2.377000000     1.514000000
O    -4.196000000    -1.491000000     2.940000000
H    -3.277000000    -1.393000000     3.187000000
H    -4.171000000    -1.932000000     2.092000000
O     1.406000000    -6.205000000     0.475000000
H     2.301000000    -6.116000000     0.146000000
H     1.451000000    -5.892000000     1.378000000
O     1.819000000     0.773000000    -5.019000000
H     1.938000000     0.813000000    -5.968000000
H     2.276000000     1.545000000    -4.687000000
O    -5.356000000     0.142000000     4.938000000
H    -4.782000000    -0.300000000     4.313000000
H    -4.796000000     0.797000000     5.356000000
O    -1.730000000    -3.955000000    -1.253000000
H    -1.041000000    -4.118000000    -1.897000000
H    -1.281000000    -3.525000000    -0.525000000
O    -1.036000000    -1.448000000     5.938000000
H    -0.947000000    -1.333000000     4.992000000
H    -0.261000000    -1.948000000     6.192000000
O     3.334000000    -4.402000000    -2.111000000
H     3.652000000    -4.986000000    -2.800000000
H     3.334000000    -4.941000000    -1.320000000
O    -3.156000000     3.315000000    -0.769000000
H    -2.934000000     3.803000000    -1.562000000
H    -3.226000000     3.984000000    -0.088000000
O     6.191000000    -0.404000000     0.588000000
H     5.532000000    -0.868000000     0.073000000
H     5.823000000    -0.367000000     1.471000000
O    -0.701000000     0.071000000    -4.430000000
H     0.218000000     0.305000000    -4.558000000
H    -1.189000000     0.816000000    -4.782000000
O     2.511000000     0.490000000     1.697000000
H     2.312000000    -0.298000000     2.202000000
H     1.848000000     0.507000000     1.007000000
O    -4.100000000    -4.928000000    -1.836000000
H    -4.141000000    -5.876000000    -1.712000000
H    -3.195000000    -4.698000000    -1.624000000
O    -4.716000000     1.143000000    -0.744000000
H    -4.015000000     1.768000000    -0.561000000
H    -5.005000000     1.360000000    -1.630000000
O     1.725000000     4.052000000    -0.719000000
H     1.953000000     4.733000000    -1.350000000
H     0.910000000     4.358000000    -0.319000000
O    -2.330000000    -1.085000000    -2.184000000
H    -1.611000000    -1.066000000    -1.553000000
H    -1.949000000    -0.742000000    -2.992000000
O     1.391000000     2.416000000     4.518000000
H     0.487000000     2.119000000     4.624000000
H     1.497000000     2.528000000     3.574000000
O     5.054000000    -2.360000000    -3.759000000
H     4.896000000    -2.753000000    -2.901000000
H     5.555000000    -3.022000000    -4.237000000
O     2.928000000     5.855000000    -2.703000000
H     2.218000000     5.985000000    -3.332000000
H     3.069000000     6.720000000    -2.319000000
O    -4.898000000     1.984000000    -3.536000000
H    -5.373000000     1.318000000    -4.034000000
H    -3.999000000     1.927000000    -3.858000000
O    -5.744000000     2.918000000     1.697000000
H    -5.692000000     1.976000000     1.535000000
H    -6.128000000     2.990000000     2.571000000
O     2.371000000    -1.805000000    -4.598000000
H     3.292000000    -1.916000000    -4.363000000
H     2.258000000    -0.858000000    -4.685000000
O    -6.304000000    -3.074000000     3.899000000
H    -5.465000000    -3.029000000     3.439000000
H    -6.288000000    -3.922000000     4.343000000
O    -1.363000000    -1.394000000    -6.855000000
H    -1.413000000    -1.043000000    -5.966000000
H    -1.805000000    -0.739000000    -7.396000000
O    -2.731000000     1.119000000    -7.155000000
H    -3.640000000     1.417000000    -7.119000000
H    -2.272000000     1.674000000    -6.524000000
O    -4.007000000    -4.617000000     1.531000000
H    -3.519000000    -4.024000000     2.103000000
H    -4.144000000    -4.115000000     0.727000000
O    -0.981000000     1.175000000     4.444000000
H    -1.721000000     1.137000000     5.051000000
H    -0.968000000     0.314000000     4.028000000
O    -2.707000000     0.611000000     6.229000000
H    -2.253000000    -0.231000000     6.200000000
H    -2.863000000     0.767000000     7.161000000
O    -3.644000000     5.673000000     0.691000000
H    -4.511000000     5.519000000     1.067000000
H    -3.274000000     6.378000000     1.223000000
O     0.874000000    -3.723000000    -2.879000000
H     1.096000000    -2.985000000    -3.447000000
H     1.710000000    -3.994000000    -2.501000000
O     1.159000000    -4.401000000     2.860000000
H     0.359000000    -4.115000000     2.418000000
H     1.651000000    -3.593000000     3.009000000
O     1.651000000    -2.229000000     6.015000000
H     1.540000000    -2.945000000     6.641000000
H     2.596000000    -2.181000000     5.871000000
O    -0.822000000    -7.347000000    -0.436000000
H    -0.715000000    -7.181000000    -1.373000000
H    -0.097000000    -6.876000000    -0.025000000
O    -0.519000000     5.488000000     2.778000000
H    -1.069000000     4.748000000     3.036000000
H    -0.443000000     5.409000000     1.827000000
O    -4.737000000    -1.875000000     0.228000000
H    -4.442000000    -2.294000000    -0.581000000
H    -4.724000000    -0.939000000     0.032000000
O    -3.343000000    -2.421000000     6.590000000
H    -4.058000000    -2.119000000     6.030000000
H    -2.548000000    -2.150000000     6.130000000
O     3.776000000     1.924000000    -1.484000000
H     3.093000000     2.425000000    -1.039000000
H     4.510000000     2.535000000    -1.561000000
O     4.047000000    -0.800000000    -1.165000000
H     3.832000000     0.127000000    -1.063000000
H     4.382000000    -0.871000000    -2.059000000
O     0.930000000    -6.233000000     4.709000000
H     1.835000000    -6.287000000     5.014000000
H     0.959000000    -5.612000000     3.981000000
O     0.904000000     3.448000000    -3.528000000
H     1.272000000     3.141000000    -2.700000000
H     1.641000000     3.431000000    -4.139000000
