158
-3010.18920
C     0.534000000     1.175000000     0.710000000
H     1.083000000     1.864000000     1.347000000
C     0.129000000    -0.059000000     1.277000000
H     0.230000000    -0.174000000     2.354000000
C    -0.292000000    -1.116000000     0.480000000
H    -0.389000000    -2.156000000     0.929000000
C    -0.527000000    -0.839000000    -0.852000000
H    -1.077000000    -1.580000000    -1.427000000
C    -0.092000000     0.390000000    -1.450000000
H    -0.280000000     0.486000000    -2.516000000
C     0.477000000     1.385000000    -0.639000000
C     0.942000000     2.673000000    -1.262000000
O     1.448000000     3.575000000    -0.621000000
O     1.094000000     2.655000000    -2.518000000
O    -2.444000000    -3.903000000    -0.696000000
H    -1.573000000    -3.626000000    -0.411000000
H    -2.283000000    -4.428000000    -1.480000000
O     2.256000000    -2.686000000    -1.206000000
H     1.477000000    -2.760000000    -1.756000000
H     2.592000000    -1.807000000    -1.382000000
O    -5.577000000    -1.825000000     0.633000000
H    -4.973000000    -1.247000000     1.100000000
H    -5.733000000    -2.549000000     1.239000000
O    -0.451000000    -1.672000000     4.363000000
H    -0.237000000    -2.599000000     4.262000000
H    -1.252000000    -1.554000000     3.852000000
O     3.783000000    -4.684000000     2.789000000
H     4.436000000    -4.304000000     3.376000000
H     3.279000000    -3.934000000     2.473000000
O    -0.849000000     6.688000000     0.130000000
H    -0.499000000     6.017000000     0.716000000
H    -1.298000000     7.303000000     0.711000000
O     4.416000000     7.020000000     0.376000000
H     3.726000000     6.924000000    -0.280000000
H     4.114000000     7.733000000     0.939000000
O     3.438000000     1.290000000    -3.334000000
H     3.682000000     0.863000000    -2.513000000
H     2.619000000     1.744000000    -3.134000000
O    -3.334000000     2.787000000    -1.065000000
H    -3.346000000     2.307000000    -1.893000000
H    -2.836000000     3.582000000    -1.257000000
O     1.302000000     8.495000000    -0.399000000
H     0.368000000     8.655000000    -0.530000000
H     1.456000000     7.637000000    -0.793000000
O    -1.087000000     2.835000000     5.178000000
H    -0.301000000     2.456000000     4.784000000
H    -1.401000000     3.464000000     4.528000000
O    -3.268000000    -0.303000000     0.066000000
H    -3.342000000     0.235000000    -0.722000000
H    -2.415000000    -0.729000000    -0.014000000
O     4.220000000    -1.165000000     4.488000000
H     5.120000000    -0.880000000     4.644000000
H     3.751000000    -0.927000000     5.288000000
O    -2.640000000     0.915000000    -3.258000000
H    -3.341000000     1.063000000    -3.893000000
H    -2.334000000     0.027000000    -3.441000000
O    -0.723000000     3.273000000    -4.371000000
H     0.073000000     3.003000000    -3.913000000
H    -1.315000000     2.526000000    -4.284000000
O     2.427000000     5.505000000     2.867000000
H     2.024000000     5.469000000     3.735000000
H     2.807000000     4.635000000     2.744000000
O    -1.652000000     4.817000000    -1.746000000
H    -1.307000000     4.919000000    -2.634000000
H    -1.196000000     5.486000000    -1.235000000
O     0.265000000     4.376000000     1.620000000
H     1.018000000     4.665000000     2.134000000
H     0.645000000     3.874000000     0.899000000
O    -3.099000000     4.139000000    -5.067000000
H    -2.147000000     4.220000000    -5.135000000
H    -3.302000000     4.432000000    -4.179000000
O     0.749000000    -2.513000000    -3.987000000
H     1.097000000    -2.411000000    -4.873000000
H     0.783000000    -3.455000000    -3.823000000
O    -6.083000000    -4.486000000    -0.480000000
H    -5.272000000    -3.984000000    -0.390000000
H    -6.690000000    -3.884000000    -0.911000000
O     0.051000000    -4.649000000     4.559000000
H    -0.623000000    -5.130000000     4.078000000
H     0.845000000    -4.761000000     4.036000000
O    -3.886000000    -3.545000000    -4.477000000
H    -2.982000000    -3.760000000    -4.246000000
H    -3.955000000    -2.603000000    -4.324000000
O     1.485000000    -6.088000000     2.382000000
H     2.413000000    -5.852000000     2.380000000
H     1.144000000    -5.729000000     1.563000000
O     5.943000000     5.419000000    -2.000000000
H     5.730000000     4.940000000    -2.801000000
H     5.213000000     5.232000000    -1.409000000
O     0.712000000    -5.694000000    -0.046000000
H     1.557000000    -5.577000000    -0.480000000
H     0.296000000    -6.414000000    -0.520000000
O     6.926000000     2.435000000    -0.426000000
H     7.332000000     2.954000000     0.269000000
H     5.993000000     2.639000000    -0.361000000
O    -1.056000000     2.264000000    -7.027000000
H    -0.577000000     2.469000000    -6.224000000
H    -0.752000000     2.915000000    -7.659000000
O    -2.465000000     2.105000000     1.546000000
H    -1.750000000     1.471000000     1.499000000
H    -2.774000000     2.186000000     0.644000000
O     3.910000000     3.011000000     0.153000000
H     3.041000000     3.041000000    -0.247000000
H     3.749000000     2.737000000     1.056000000
O     0.132000000    -3.740000000     7.293000000
H    -0.119000000    -3.874000000     6.379000000
H    -0.656000000    -3.390000000     7.709000000
O    -6.044000000    -1.492000000     4.383000000
H    -6.768000000    -2.114000000     4.323000000
H    -5.266000000    -2.009000000     4.173000000
O     3.821000000     2.308000000    -5.860000000
H     3.657000000     2.161000000    -4.928000000
H     3.809000000     1.432000000    -6.246000000
O     2.310000000     6.060000000    -1.368000000
H     1.998000000     5.272000000    -0.923000000
H     2.603000000     5.751000000    -2.225000000
O     0.865000000    -1.079000000    -6.729000000
H    -0.008000000    -0.717000000    -6.582000000
H     0.790000000    -1.560000000    -7.553000000
O    -4.166000000    -3.666000000     3.543000000
H    -3.486000000    -3.105000000     3.169000000
H    -3.838000000    -4.556000000     3.415000000
O     3.918000000    -0.074000000    -1.032000000
H     4.730000000    -0.568000000    -0.922000000
H     3.528000000    -0.056000000    -0.158000000
O    -1.799000000    -1.564000000    -4.309000000
H    -2.074000000    -1.533000000    -5.225000000
H    -0.861000000    -1.751000000    -4.347000000
O    -2.464000000     4.698000000     1.757000000
H    -2.578000000     3.748000000     1.785000000
H    -1.557000000     4.822000000     1.477000000
O     2.178000000    -2.628000000     1.477000000
H     2.115000000    -2.768000000     0.532000000
H     1.740000000    -1.791000000     1.625000000
O    -1.410000000    -5.649000000    -2.971000000
H    -0.476000000    -5.589000000    -2.767000000
H    -1.583000000    -6.588000000    -3.024000000
O    -2.385000000    -5.939000000     3.292000000
H    -2.452000000    -5.992000000     2.339000000
H    -2.596000000    -6.822000000     3.597000000
O     0.334000000    -0.699000000     7.144000000
H     1.257000000    -0.516000000     7.320000000
H     0.307000000    -0.918000000     6.213000000
O    -2.440000000    -6.883000000     0.676000000
H    -2.517000000    -6.419000000    -0.158000000
H    -2.166000000    -7.768000000     0.434000000
O     3.468000000    -0.117000000     2.115000000
H     3.232000000    -0.586000000     2.915000000
H     4.089000000     0.551000000     2.403000000
O     3.176000000     2.988000000     3.590000000
H     4.031000000     2.592000000     3.424000000
H     3.261000000     3.389000000     4.455000000
O     2.438000000     4.812000000    -3.724000000
H     2.104000000     4.824000000    -4.620000000
H     2.143000000     3.973000000    -3.369000000
O    -2.966000000    -0.795000000     2.910000000
H    -3.075000000    -0.780000000     1.959000000
H    -3.221000000     0.082000000     3.195000000
