158
-3056.95787
C    -1.136000000     1.025000000    -0.108000000
H    -1.959000000     1.728000000    -0.008000000
C    -0.189000000     0.988000000     0.917000000
H    -0.121000000     1.753000000     1.686000000
C     0.813000000    -0.026000000     0.940000000
H     1.528000000    -0.011000000     1.738000000
C     0.885000000    -0.906000000    -0.143000000
H     1.643000000    -1.675000000    -0.270000000
C     0.001000000    -0.843000000    -1.195000000
H     0.153000000    -1.576000000    -1.983000000
C    -1.055000000     0.072000000    -1.112000000
C    -2.128000000     0.010000000    -2.219000000
O    -2.946000000     0.924000000    -2.198000000
O    -1.892000000    -0.593000000    -3.276000000
O    -0.432000000    -3.894000000    -1.017000000
H    -1.205000000    -3.339000000    -0.912000000
H    -0.701000000    -4.564000000    -1.645000000
O     2.680000000    -3.755000000    -1.897000000
H     2.997000000    -4.591000000    -2.238000000
H     1.743000000    -3.757000000    -2.092000000
O    -2.921000000     1.550000000     4.085000000
H    -3.281000000     0.715000000     4.381000000
H    -3.408000000     1.751000000     3.285000000
O    -3.520000000    -1.054000000     3.603000000
H    -2.855000000    -1.471000000     3.056000000
H    -4.336000000    -1.165000000     3.115000000
O     0.757000000    -3.754000000     1.565000000
H     0.512000000    -3.776000000     0.640000000
H     1.708000000    -3.646000000     1.557000000
O    -4.871000000     1.155000000    -4.006000000
H    -4.274000000     0.960000000    -3.283000000
H    -4.965000000     2.107000000    -3.988000000
O     2.013000000     3.861000000     3.497000000
H     1.311000000     3.322000000     3.862000000
H     1.966000000     4.681000000     3.989000000
O     1.049000000     4.109000000     0.829000000
H     1.724000000     4.311000000     0.181000000
H     1.535000000     3.938000000     1.636000000
O    -3.723000000     4.668000000     3.585000000
H    -3.530000000     4.474000000     4.503000000
H    -2.934000000     5.101000000     3.261000000
O    -3.273000000     3.455000000    -2.659000000
H    -3.179000000     2.508000000    -2.769000000
H    -2.501000000     3.715000000    -2.156000000
O    -5.021000000     5.557000000    -2.478000000
H    -5.446000000     5.417000000    -3.325000000
H    -4.411000000     4.824000000    -2.393000000
O     5.104000000    -0.859000000    -4.095000000
H     4.576000000    -0.480000000    -3.392000000
H     5.938000000    -1.075000000    -3.678000000
O    -3.976000000    -2.434000000    -3.460000000
H    -3.181000000    -1.905000000    -3.404000000
H    -4.102000000    -2.772000000    -2.573000000
O    -5.051000000     0.173000000    -6.672000000
H    -5.283000000     0.485000000    -5.798000000
H    -4.232000000    -0.306000000    -6.546000000
O    -0.737000000     3.049000000     4.626000000
H    -0.673000000     3.068000000     5.581000000
H    -1.474000000     2.465000000     4.448000000
O    -2.531000000    -0.919000000    -5.857000000
H    -2.401000000    -0.872000000    -4.910000000
H    -1.982000000    -0.218000000    -6.210000000
O    -4.576000000     1.794000000     0.034000000
H    -4.887000000     2.173000000    -0.788000000
H    -3.796000000     1.297000000    -0.211000000
O     3.620000000    -1.174000000    -1.671000000
H     4.218000000    -0.909000000    -0.973000000
H     3.238000000    -1.995000000    -1.360000000
O    -0.833000000    -5.808000000     2.461000000
H    -0.743000000    -5.653000000     3.401000000
H    -0.329000000    -5.104000000     2.053000000
O    -5.797000000     2.988000000     2.595000000
H    -5.371000000     3.742000000     3.003000000
H    -5.177000000     2.694000000     1.928000000
O    -0.786000000     5.129000000     3.094000000
H    -0.227000000     4.845000000     2.371000000
H    -0.798000000     4.383000000     3.694000000
O    -7.719000000     1.047000000    -2.435000000
H    -7.535000000     1.942000000    -2.721000000
H    -7.098000000     0.891000000    -1.723000000
O    -2.980000000    -2.826000000    -0.474000000
H    -2.663000000    -2.648000000     0.412000000
H    -3.929000000    -2.717000000    -0.415000000
O    -6.834000000    -1.290000000    -3.605000000
H    -5.935000000    -1.228000000    -3.281000000
H    -7.206000000    -0.422000000    -3.448000000
O    -1.046000000     4.218000000    -1.317000000
H    -0.419000000     3.903000000    -0.666000000
H    -0.808000000     5.135000000    -1.454000000
O     3.262000000     1.001000000     6.104000000
H     3.392000000     1.849000000     6.530000000
H     2.341000000     0.794000000     6.260000000
O     5.399000000    -4.441000000    -0.306000000
H     5.958000000    -3.711000000    -0.038000000
H     4.603000000    -4.336000000     0.215000000
O     2.165000000     1.037000000    -2.175000000
H     2.728000000     0.280000000    -2.015000000
H     1.535000000     1.025000000    -1.454000000
O    -6.936000000    -0.093000000    -0.004000000
H    -6.410000000     0.670000000     0.236000000
H    -7.268000000    -0.427000000     0.829000000
O    -0.373000000    -3.071000000    -4.224000000
H     0.001000000    -2.755000000    -5.047000000
H    -0.777000000    -2.297000000    -3.832000000
O    -2.131000000    -1.243000000     5.983000000
H    -2.756000000    -1.575000000     6.628000000
H    -2.589000000    -1.315000000     5.146000000
O    -3.239000000     6.018000000     0.519000000
H    -2.303000000     5.823000000     0.469000000
H    -3.636000000     5.463000000    -0.152000000
O    -1.132000000    -5.346000000    -3.163000000
H    -0.649000000    -6.103000000    -3.496000000
H    -0.892000000    -4.631000000    -3.753000000
O     5.433000000    -0.345000000     0.172000000
H     5.155000000    -0.747000000     0.995000000
H     5.434000000     0.595000000     0.352000000
O    -1.031000000     2.771000000    -4.427000000
H    -1.218000000     3.664000000    -4.717000000
H    -1.227000000     2.778000000    -3.490000000
O     3.490000000    -3.683000000     1.677000000
H     3.766000000    -3.831000000     2.581000000
H     3.336000000    -2.739000000     1.624000000
O    -3.606000000    -3.421000000    -6.537000000
H    -4.437000000    -3.199000000    -6.956000000
H    -3.395000000    -2.655000000    -6.003000000
O     4.230000000    -1.112000000     2.786000000
H     3.532000000    -1.307000000     3.411000000
H     4.470000000    -0.204000000     2.971000000
O     4.714000000     4.983000000     2.090000000
H     4.757000000     5.189000000     1.156000000
H     3.836000000     4.624000000     2.216000000
O     4.263000000     1.838000000     3.416000000
H     4.141000000     1.544000000     4.319000000
H     3.826000000     2.689000000     3.381000000
O     0.641000000    -0.373000000     6.650000000
H     0.400000000     0.112000000     7.439000000
H    -0.175000000    -0.784000000     6.363000000
O     2.399000000    -1.834000000     4.698000000
H     2.325000000    -2.765000000     4.909000000
H     1.754000000    -1.408000000     5.262000000
O     1.000000000    -0.258000000    -4.168000000
H     1.544000000     0.238000000    -3.555000000
H     0.102000000    -0.093000000    -3.878000000
O    -1.019000000     1.179000000    -6.623000000
H    -0.894000000     1.614000000    -5.780000000
H    -1.310000000     1.876000000    -7.211000000
O     6.290000000     1.874000000     1.507000000
H     5.664000000     2.211000000     2.149000000
H     7.008000000     1.524000000     2.034000000
O     1.299000000    -1.716000000    -6.262000000
H     2.240000000    -1.867000000    -6.171000000
H     1.090000000    -1.082000000    -5.576000000
O    -5.555000000    -2.330000000    -0.989000000
H    -5.902000000    -1.575000000    -0.514000000
H    -6.177000000    -2.471000000    -1.703000000
O    -1.313000000    -1.688000000     2.088000000
H    -0.849000000    -0.859000000     1.971000000
H    -0.624000000    -2.323000000     2.282000000
