158
-3035.86564
C     0.054000000     1.328000000     0.651000000
H    -0.013000000     2.215000000     1.276000000
C    -0.419000000     0.131000000     1.226000000
H    -0.785000000     0.117000000     2.249000000
C    -0.399000000    -1.044000000     0.519000000
H    -0.780000000    -1.927000000     0.965000000
C     0.043000000    -1.060000000    -0.816000000
H     0.036000000    -1.985000000    -1.388000000
C     0.568000000     0.136000000    -1.372000000
H     0.858000000     0.235000000    -2.414000000
C     0.680000000     1.253000000    -0.604000000
C     1.119000000     2.563000000    -1.279000000
O     1.087000000     3.608000000    -0.648000000
O     1.573000000     2.572000000    -2.413000000
O    -1.786000000    -3.445000000    -2.959000000
H    -1.923000000    -3.444000000    -3.906000000
H    -1.902000000    -2.531000000    -2.700000000
O     3.134000000    -1.245000000    -4.792000000
H     4.089000000    -1.257000000    -4.723000000
H     2.956000000    -0.700000000    -5.559000000
O    -4.148000000    -3.177000000    -0.560000000
H    -4.460000000    -2.873000000    -1.413000000
H    -3.368000000    -2.649000000    -0.389000000
O     4.339000000    -2.138000000     0.567000000
H     3.901000000    -2.480000000    -0.211000000
H     3.862000000    -1.336000000     0.778000000
O     3.012000000     1.738000000    -4.340000000
H     3.517000000     2.549000000    -4.407000000
H     2.415000000     1.887000000    -3.607000000
O     1.159000000     5.232000000     3.478000000
H     1.062000000     6.165000000     3.666000000
H     0.264000000     4.919000000     3.349000000
O     0.026000000    -5.039000000    -1.742000000
H     0.496000000    -5.410000000    -2.488000000
H    -0.586000000    -4.413000000    -2.130000000
O    -4.015000000    -0.890000000     2.969000000
H    -3.769000000    -1.781000000     2.721000000
H    -3.736000000    -0.810000000     3.881000000
O     2.551000000     7.483000000    -0.965000000
H     2.385000000     7.106000000    -1.829000000
H     2.371000000     6.770000000    -0.353000000
O    -3.119000000    -0.028000000    -0.385000000
H    -2.942000000    -0.192000000    -1.311000000
H    -2.257000000    -0.055000000     0.032000000
O    -2.571000000     2.895000000    -2.602000000
H    -2.136000000     3.457000000    -1.960000000
H    -3.288000000     2.488000000    -2.117000000
O    -0.201000000     2.257000000    -4.714000000
H    -0.964000000     2.833000000    -4.663000000
H     0.216000000     2.335000000    -3.856000000
O     2.949000000     3.069000000     3.287000000
H     2.265000000     3.738000000     3.275000000
H     2.476000000     2.240000000     3.209000000
O     1.309000000     5.910000000    -3.041000000
H     0.370000000     5.934000000    -3.227000000
H     1.430000000     5.117000000    -2.520000000
O    -1.440000000     4.543000000    -0.304000000
H    -1.452000000     5.395000000     0.132000000
H    -0.542000000     4.232000000    -0.196000000
O     1.523000000    -3.796000000    -5.207000000
H     1.949000000    -3.838000000    -6.063000000
H     0.751000000    -3.248000000    -5.350000000
O     1.105000000    -7.520000000     0.224000000
H     1.804000000    -7.745000000    -0.391000000
H     0.401000000    -7.181000000    -0.328000000
O    -6.510000000    -4.272000000     0.391000000
H    -7.170000000    -3.770000000    -0.087000000
H    -5.676000000    -3.885000000     0.125000000
O     1.687000000    -3.707000000     0.300000000
H     1.146000000    -4.228000000    -0.293000000
H     1.264000000    -2.848000000     0.317000000
O    -2.911000000     6.662000000    -2.250000000
H    -2.429000000     5.958000000    -1.817000000
H    -2.657000000     6.595000000    -3.171000000
O     3.949000000     3.936000000    -1.648000000
H     3.976000000     4.165000000    -0.719000000
H     3.223000000     3.317000000    -1.722000000
O     4.773000000     2.524000000     1.331000000
H     5.224000000     1.748000000     1.665000000
H     4.197000000     2.792000000     2.047000000
O    -1.720000000    -0.912000000    -6.493000000
H    -1.540000000    -1.570000000    -7.164000000
H    -0.909000000    -0.857000000    -5.987000000
O     0.693000000    -6.350000000     2.729000000
H     0.676000000    -6.525000000     1.788000000
H     1.490000000    -6.782000000     3.038000000
O     2.630000000     0.572000000    -6.695000000
H     3.398000000     0.866000000    -7.183000000
H     2.664000000     1.064000000    -5.875000000
O    -2.857000000    -0.774000000     6.201000000
H    -2.857000000    -1.477000000     6.851000000
H    -2.049000000    -0.906000000     5.706000000
O    -4.862000000    -2.265000000    -2.969000000
H    -4.112000000    -1.673000000    -3.029000000
H    -5.144000000    -2.388000000    -3.875000000
O    -0.852000000     1.558000000     5.433000000
H    -1.469000000     1.520000000     6.163000000
H    -0.499000000     0.670000000     5.372000000
O    -0.454000000    -3.866000000     3.605000000
H     0.322000000    -3.839000000     4.165000000
H    -0.166000000    -4.334000000     2.820000000
O    -0.326000000    -1.243000000     4.956000000
H    -0.652000000    -1.849000000     4.290000000
H    -0.051000000    -1.807000000     5.678000000
O     2.053000000     5.566000000     0.694000000
H     1.767000000     4.764000000     0.257000000
H     1.652000000     5.522000000     1.562000000
O     3.713000000    -4.990000000     1.788000000
H     2.959000000    -4.573000000     1.370000000
H     4.473000000    -4.590000000     1.365000000
O    -2.704000000    -3.154000000     2.280000000
H    -1.865000000    -3.330000000     2.705000000
H    -2.762000000    -3.808000000     1.583000000
O    -5.042000000    -4.042000000     3.875000000
H    -4.518000000    -4.374000000     4.604000000
H    -4.434000000    -3.503000000     3.369000000
O     5.151000000     4.505000000    -4.059000000
H     4.284000000     4.619000000    -4.450000000
H     4.973000000     4.281000000    -3.145000000
O    -2.103000000    -5.013000000    -0.035000000
H    -1.467000000    -5.062000000    -0.748000000
H    -2.884000000    -4.631000000    -0.435000000
O     4.126000000     0.543000000    -1.324000000
H     4.341000000     1.380000000    -1.736000000
H     3.817000000     0.779000000    -0.449000000
O     0.447000000    -0.815000000    -4.811000000
H     0.634000000     0.116000000    -4.685000000
H     1.309000000    -1.221000000    -4.908000000
O    -2.318000000    -0.708000000    -2.862000000
H    -2.750000000    -0.264000000    -3.592000000
H    -1.393000000    -0.729000000    -3.108000000
O     2.869000000     5.039000000    -5.482000000
H     2.164000000     5.300000000    -4.889000000
H     3.040000000     5.821000000    -6.008000000
O    -0.804000000     3.356000000     3.507000000
H    -0.699000000     2.565000000     4.036000000
H    -1.748000000     3.421000000     3.359000000
O     3.711000000    -2.079000000    -2.025000000
H     3.344000000    -2.063000000    -2.909000000
H     3.707000000    -1.164000000    -1.747000000
O    -3.004000000    -7.693000000    -0.007000000
H    -2.900000000    -6.866000000     0.464000000
H    -3.551000000    -7.472000000    -0.761000000
O     2.910000000    -2.265000000     3.617000000
H     2.728000000    -2.772000000     2.826000000
H     2.844000000    -2.901000000     4.330000000
O     2.759000000     0.114000000     1.372000000
H     1.822000000     0.060000000     1.186000000
H     2.806000000     0.326000000     2.304000000
O     1.368000000     0.147000000     6.937000000
H     2.066000000    -0.496000000     7.064000000
H     1.259000000     0.198000000     5.988000000
O     2.278000000     0.215000000     4.233000000
H     2.371000000    -0.650000000     3.834000000
H     3.065000000     0.318000000     4.768000000
O    -5.310000000     0.709000000     0.996000000
H    -4.509000000     0.557000000     0.495000000
H    -5.069000000     0.508000000     1.900000000
