158
-3048.84841
C     0.460000000     0.873000000     1.131000000
H     0.895000000     1.495000000     1.909000000
C     0.169000000    -0.471000000     1.248000000
H     0.395000000    -0.973000000     2.185000000
C    -0.355000000    -1.197000000     0.093000000
H    -0.561000000    -2.280000000     0.100000000
C    -0.441000000    -0.608000000    -1.143000000
H    -0.649000000    -1.150000000    -2.062000000
C    -0.055000000     0.774000000    -1.259000000
H    -0.201000000     1.234000000    -2.234000000
C     0.267000000     1.537000000    -0.096000000
C     0.612000000     3.000000000    -0.159000000
O     0.854000000     3.647000000     0.853000000
O     0.575000000     3.581000000    -1.229000000
O    -1.221000000    -4.477000000    -1.151000000
H    -2.075000000    -4.140000000    -1.421000000
H    -0.740000000    -4.593000000    -1.971000000
O     3.799000000    -0.229000000    -2.754000000
H     2.959000000    -0.032000000    -3.168000000
H     3.898000000     0.444000000    -2.081000000
O    -0.662000000    -4.870000000    -3.956000000
H    -1.188000000    -4.254000000    -4.465000000
H    -0.538000000    -5.619000000    -4.539000000
O    -0.866000000     4.615000000     5.395000000
H    -1.123000000     4.697000000     4.477000000
H    -1.691000000     4.508000000     5.867000000
O    -1.545000000    -0.578000000     4.852000000
H    -1.355000000    -1.503000000     5.009000000
H    -2.461000000    -0.565000000     4.575000000
O     2.403000000    -3.534000000     1.431000000
H     2.963000000    -3.182000000     2.122000000
H     2.440000000    -2.878000000     0.734000000
O    -2.970000000     6.871000000    -0.208000000
H    -2.081000000     6.516000000    -0.203000000
H    -3.506000000     6.168000000    -0.573000000
O     2.509000000     2.404000000    -2.780000000
H     3.110000000     2.553000000    -2.050000000
H     1.754000000     2.959000000    -2.586000000
O    -3.790000000     1.716000000    -0.554000000
H    -3.624000000     2.413000000    -1.189000000
H    -3.734000000     2.149000000     0.298000000
O     4.125000000    -3.850000000    -2.767000000
H     3.554000000    -4.464000000    -2.306000000
H     3.524000000    -3.228000000    -3.179000000
O    -5.962000000    -3.351000000    -0.570000000
H    -5.567000000    -2.570000000    -0.957000000
H    -6.049000000    -3.962000000    -1.302000000
O     3.735000000    -2.037000000     3.677000000
H     4.089000000    -1.271000000     3.225000000
H     4.454000000    -2.341000000     4.232000000
O    -3.230000000    -2.873000000    -2.533000000
H    -3.228000000    -2.105000000    -1.961000000
H    -3.117000000    -2.516000000    -3.414000000
O    -1.057000000     1.105000000    -6.441000000
H    -0.495000000     1.715000000    -5.962000000
H    -0.449000000     0.487000000    -6.845000000
O     1.764000000     4.635000000     5.505000000
H     0.889000000     4.580000000     5.120000000
H     2.217000000     3.856000000     5.182000000
O    -2.573000000     3.937000000    -1.718000000
H    -1.673000000     3.635000000    -1.595000000
H    -2.597000000     4.257000000    -2.620000000
O    -1.128000000     4.227000000     2.697000000
H    -1.672000000     3.623000000     2.192000000
H    -0.291000000     4.242000000     2.232000000
O     1.422000000    -1.981000000    -4.217000000
H     1.264000000    -2.098000000    -5.154000000
H     1.327000000    -2.859000000    -3.847000000
O     5.269000000    -1.507000000     0.925000000
H     5.788000000    -0.722000000     1.100000000
H     4.417000000    -1.173000000     0.645000000
O    -0.245000000    -6.294000000     4.100000000
H     0.258000000    -5.557000000     3.754000000
H    -0.827000000    -5.902000000     4.751000000
O    -5.546000000    -4.409000000    -3.050000000
H    -6.066000000    -3.643000000    -3.292000000
H    -4.650000000    -4.078000000    -2.980000000
O     0.824000000    -2.860000000     4.090000000
H     1.734000000    -2.670000000     3.861000000
H     0.407000000    -3.074000000     3.255000000
O    -2.488000000     6.589000000     2.771000000
H    -2.790000000     6.510000000     1.866000000
H    -2.088000000     5.742000000     2.965000000
O     3.807000000     5.627000000     3.658000000
H     4.553000000     6.197000000     3.846000000
H     3.274000000     5.660000000     4.453000000
O    -0.302000000    -4.236000000     1.987000000
H     0.566000000    -4.083000000     1.614000000
H    -0.906000000    -4.080000000     1.261000000
O    -2.508000000    -2.997000000    -5.413000000
H    -2.516000000    -3.508000000    -6.223000000
H    -2.575000000    -2.088000000    -5.704000000
O     3.332000000    -0.391000000     6.573000000
H     2.815000000    -0.153000000     5.804000000
H     2.687000000    -0.687000000     7.215000000
O     2.100000000    -5.573000000    -2.237000000
H     1.153000000    -5.448000000    -2.295000000
H     2.330000000    -6.034000000    -3.044000000
O     2.872000000     5.356000000    -1.002000000
H     3.119000000     4.792000000    -0.269000000
H     2.016000000     5.030000000    -1.278000000
O     0.643000000    -3.036000000     6.908000000
H     0.382000000    -2.992000000     5.988000000
H     1.564000000    -3.293000000     6.884000000
O    -3.955000000    -4.053000000     1.502000000
H    -4.203000000    -4.131000000     0.581000000
H    -3.772000000    -3.122000000     1.623000000
O     3.830000000     2.490000000     5.115000000
H     3.617000000     2.243000000     6.015000000
H     4.460000000     3.205000000     5.206000000
O     4.463000000     5.112000000    -4.295000000
H     5.053000000     5.753000000    -3.899000000
H     3.731000000     5.049000000    -3.681000000
O     0.887000000     2.322000000    -5.042000000
H     1.433000000     2.166000000    -4.271000000
H     0.852000000     3.275000000    -5.122000000
O    -0.219000000     6.497000000     0.278000000
H     0.497000000     5.900000000     0.496000000
H    -0.067000000     7.265000000     0.829000000
O     2.168000000    -6.059000000     0.535000000
H     2.069000000    -5.220000000     0.983000000
H     2.025000000    -5.856000000    -0.390000000
O     4.426000000     2.129000000    -0.441000000
H     5.288000000     2.337000000    -0.800000000
H     4.292000000     2.777000000     0.251000000
O    -3.356000000    -0.274000000    -4.294000000
H    -3.591000000     0.273000000    -3.544000000
H    -3.215000000     0.347000000    -5.008000000
O     2.809000000    -1.792000000    -0.679000000
H     3.232000000    -1.498000000    -1.486000000
H     1.879000000    -1.842000000    -0.900000000
O    -1.955000000     4.361000000    -4.258000000
H    -2.245000000     4.324000000    -5.169000000
H    -0.999000000     4.383000000    -4.311000000
O    -2.346000000    -6.237000000     2.059000000
H    -2.834000000    -5.437000000     1.867000000
H    -1.585000000    -5.940000000     2.557000000
O     0.892000000     0.566000000     5.021000000
H     0.100000000     0.029000000     5.052000000
H     1.132000000     0.586000000     4.094000000
O     3.760000000     8.035000000    -0.582000000
H     3.169000000     8.693000000    -0.948000000
H     3.231000000     7.238000000    -0.533000000
O     3.476000000     3.848000000     1.478000000
H     2.540000000     3.668000000     1.392000000
H     3.547000000     4.377000000     2.272000000
O     3.733000000     1.125000000     2.899000000
H     3.626000000     1.802000000     3.568000000
H     3.591000000     1.583000000     2.070000000
O     0.856000000     4.857000000    -3.948000000
H     1.585000000     5.472000000    -4.035000000
H     0.466000000     5.067000000    -3.100000000
O    -4.294000000    -0.822000000    -0.782000000
H    -3.880000000    -1.071000000     0.044000000
H    -4.189000000     0.128000000    -0.826000000
O    -3.041000000    -1.208000000     2.035000000
H    -2.191000000    -0.775000000     1.956000000
H    -3.534000000    -0.659000000     2.644000000
