158
-3018.71939
C    -0.035000000     0.719000000     1.263000000
H     0.015000000     1.110000000     2.276000000
C    -0.402000000    -0.635000000     1.097000000
H    -0.689000000    -1.249000000     1.947000000
C    -0.471000000    -1.173000000    -0.179000000
H    -0.814000000    -2.198000000    -0.341000000
C    -0.164000000    -0.300000000    -1.281000000
H    -0.222000000    -0.761000000    -2.264000000
C     0.295000000     1.011000000    -1.126000000
H     0.534000000     1.650000000    -1.972000000
C     0.295000000     1.543000000     0.159000000
C     0.979000000     2.896000000     0.494000000
O     0.961000000     3.390000000     1.591000000
O     1.633000000     3.438000000    -0.354000000
O     0.053000000    -6.972000000    -1.492000000
H    -0.058000000    -7.918000000    -1.400000000
H     1.001000000    -6.846000000    -1.532000000
O     3.770000000    -1.141000000    -2.129000000
H     3.190000000    -1.392000000    -2.847000000
H     3.498000000    -0.251000000    -1.902000000
O    -0.042000000    -4.264000000    -2.810000000
H    -0.764000000    -4.291000000    -3.438000000
H     0.004000000    -5.153000000    -2.460000000
O    -0.885000000    -3.070000000     6.081000000
H    -1.165000000    -3.343000000     5.207000000
H    -1.419000000    -2.299000000     6.273000000
O     2.490000000    -3.865000000     2.221000000
H     2.979000000    -3.382000000     2.888000000
H     2.283000000    -3.210000000     1.555000000
O     2.552000000     8.050000000     2.120000000
H     1.918000000     7.415000000     1.788000000
H     2.989000000     8.384000000     1.336000000
O     3.352000000     1.664000000    -1.265000000
H     3.794000000     1.589000000    -0.419000000
H     2.640000000     2.284000000    -1.108000000
O    -3.358000000     0.519000000    -0.332000000
H    -2.689000000    -0.162000000    -0.405000000
H    -3.051000000     1.220000000    -0.907000000
O    -3.091000000    -0.215000000     4.300000000
H    -3.817000000     0.050000000     4.865000000
H    -2.887000000    -1.109000000     4.575000000
O     4.239000000    -3.644000000    -1.047000000
H     4.747000000    -4.082000000    -1.730000000
H     4.104000000    -2.757000000    -1.382000000
O    -0.769000000     6.935000000     2.910000000
H    -1.086000000     6.044000000     3.057000000
H    -0.213000000     6.866000000     2.134000000
O    -3.529000000    -4.247000000     1.188000000
H    -3.540000000    -3.541000000     0.541000000
H    -4.213000000    -4.850000000     0.896000000
O    -4.316000000    -2.406000000    -1.368000000
H    -5.149000000    -1.956000000    -1.232000000
H    -3.879000000    -1.900000000    -2.054000000
O    -0.312000000     1.938000000    -5.316000000
H    -0.182000000     2.762000000    -5.784000000
H    -0.367000000     1.276000000    -6.005000000
O     0.741000000     4.361000000     5.993000000
H     0.406000000     4.586000000     5.125000000
H     0.266000000     3.566000000     6.235000000
O    -2.367000000     2.597000000    -1.754000000
H    -2.633000000     2.539000000    -2.672000000
H    -1.626000000     3.204000000    -1.757000000
O    -0.461000000     4.246000000     3.427000000
H    -1.087000000     3.522000000     3.426000000
H     0.028000000     4.141000000     2.611000000
O     5.685000000     7.061000000     0.742000000
H     4.792000000     6.720000000     0.706000000
H     5.795000000     7.533000000    -0.084000000
O     1.695000000    -2.037000000    -3.805000000
H     1.133000000    -1.980000000    -4.577000000
H     1.199000000    -2.571000000    -3.185000000
O     0.973000000     4.876000000    -4.982000000
H     1.575000000     4.222000000    -4.626000000
H     1.425000000     5.225000000    -5.749000000
O    -1.061000000    -5.876000000     4.646000000
H    -1.123000000    -5.969000000     3.695000000
H    -0.147000000    -5.642000000     4.805000000
O    -3.818000000    -4.837000000    -2.776000000
H    -3.554000000    -4.483000000    -3.625000000
H    -4.078000000    -4.069000000    -2.267000000
O     1.607000000    -5.646000000     4.233000000
H     2.310000000    -5.660000000     4.883000000
H     1.891000000    -5.000000000     3.587000000
O     3.807000000     6.171000000    -2.883000000
H     3.715000000     6.613000000    -2.039000000
H     3.367000000     6.750000000    -3.506000000
O     5.123000000    -1.329000000     1.578000000
H     5.073000000    -0.465000000     1.986000000
H     4.269000000    -1.446000000     1.161000000
O     0.572000000    -6.057000000     1.231000000
H     1.088000000    -5.252000000     1.245000000
H     0.508000000    -6.285000000     0.303000000
O    -2.855000000     3.122000000    -4.322000000
H    -2.089000000     2.603000000    -4.566000000
H    -2.893000000     3.817000000    -4.980000000
O     6.059000000     4.260000000    -1.966000000
H     5.216000000     4.670000000    -1.774000000
H     6.487000000     4.181000000    -1.113000000
O     2.693000000    -6.101000000    -1.394000000
H     2.969000000    -6.251000000    -2.298000000
H     2.910000000    -5.184000000    -1.226000000
O    -2.403000000     2.093000000     2.958000000
H    -2.336000000     1.299000000     3.489000000
H    -2.805000000     1.800000000     2.140000000
O     3.773000000     4.992000000     0.011000000
H     3.949000000     4.911000000     0.949000000
H     3.016000000     4.426000000    -0.140000000
O    -1.845000000    -6.268000000     2.299000000
H    -2.331000000    -5.659000000     1.744000000
H    -1.147000000    -6.601000000     1.735000000
O     2.916000000     3.596000000    -3.579000000
H     3.338000000     4.412000000    -3.310000000
H     3.212000000     2.951000000    -2.937000000
O     1.968000000     0.939000000    -4.742000000
H     1.093000000     1.327000000    -4.728000000
H     1.817000000     0.002000000    -4.616000000
O     0.786000000     6.237000000     0.993000000
H     1.264000000     5.407000000     0.991000000
H     0.868000000     6.562000000     0.096000000
O    -0.347000000    -1.206000000    -5.574000000
H    -1.039000000    -0.551000000    -5.477000000
H    -0.774000000    -2.037000000    -5.363000000
O     4.833000000     5.060000000     2.831000000
H     5.175000000     4.612000000     3.605000000
H     4.912000000     5.991000000     3.039000000
O     4.278000000     1.441000000     1.298000000
H     5.099000000     1.434000000     1.790000000
H     3.630000000     1.775000000     1.918000000
O     0.852000000     7.068000000    -1.790000000
H     1.303000000     7.531000000    -2.495000000
H     0.557000000     6.250000000    -2.190000000
O    -3.107000000    -0.872000000    -3.248000000
H    -3.427000000    -0.253000000    -2.592000000
H    -3.306000000    -0.456000000    -4.087000000
O     2.802000000    -1.570000000     0.305000000
H     2.857000000    -1.487000000    -0.647000000
H     1.934000000    -1.231000000     0.525000000
O    -2.691000000    -6.423000000    -0.973000000
H    -1.741000000    -6.491000000    -1.066000000
H    -2.960000000    -5.837000000    -1.680000000
O     2.525000000     2.249000000     3.346000000
H     1.928000000     2.793000000     2.831000000
H     3.115000000     2.874000000     3.767000000
O     2.400000000    -0.111000000     4.896000000
H     2.929000000     0.488000000     5.424000000
H     2.085000000     0.425000000     4.169000000
O    -0.194000000     4.462000000    -2.002000000
H     0.221000000     4.308000000    -2.851000000
H     0.496000000     4.284000000    -1.363000000
O     3.831000000     2.582000000    -6.095000000
H     3.143000000     2.509000000    -6.757000000
H     3.388000000     2.391000000    -5.268000000
O    -4.225000000    -0.796000000     1.810000000
H    -4.237000000    -0.199000000     1.062000000
H    -4.062000000    -0.231000000     2.565000000
O    -2.371000000    -2.723000000     3.259000000
H    -2.498000000    -3.164000000     2.419000000
H    -2.711000000    -1.839000000     3.119000000
