158
-3081.94919
C    -0.823000000     1.289000000    -0.316000000
H    -1.578000000     2.049000000    -0.500000000
C    -1.235000000    -0.062000000    -0.469000000
H    -2.242000000    -0.294000000    -0.805000000
C    -0.424000000    -1.190000000    -0.189000000
H    -0.756000000    -2.177000000    -0.419000000
C     0.856000000    -0.905000000     0.316000000
H     1.546000000    -1.739000000     0.412000000
C     1.233000000     0.432000000     0.540000000
H     2.269000000     0.593000000     0.826000000
C     0.397000000     1.522000000     0.264000000
C     0.965000000     2.908000000     0.490000000
O     0.444000000     3.901000000    -0.032000000
O     2.007000000     3.025000000     1.066000000
O    -4.326000000    -0.532000000     2.485000000
H    -4.280000000    -0.880000000     1.594000000
H    -3.569000000     0.051000000     2.553000000
O     5.690000000    -0.316000000    -1.883000000
H     5.395000000    -1.151000000    -1.520000000
H     5.314000000     0.344000000    -1.300000000
O     4.512000000     3.056000000    -2.353000000
H     4.128000000     2.563000000    -3.078000000
H     5.128000000     3.657000000    -2.772000000
O    -4.550000000    -1.996000000    -2.744000000
H    -4.426000000    -1.106000000    -3.074000000
H    -5.256000000    -2.354000000    -3.280000000
O     0.360000000    -0.270000000    -2.845000000
H     0.274000000    -1.201000000    -3.052000000
H    -0.149000000    -0.155000000    -2.042000000
O     3.713000000    -2.640000000    -0.920000000
H     2.989000000    -2.663000000    -1.546000000
H     4.449000000    -3.033000000    -1.390000000
O     3.293000000     6.778000000    -3.394000000
H     2.354000000     6.697000000    -3.563000000
H     3.467000000     6.137000000    -2.704000000
O    -2.335000000    -3.707000000    -2.789000000
H    -1.687000000    -3.202000000    -3.281000000
H    -3.155000000    -3.228000000    -2.911000000
O     4.515000000     2.396000000     0.438000000
H     3.612000000     2.562000000     0.710000000
H     4.502000000     2.501000000    -0.513000000
O    -2.364000000    -6.196000000    -1.851000000
H    -1.417000000    -6.293000000    -1.751000000
H    -2.477000000    -5.319000000    -2.216000000
O     1.930000000    -2.920000000    -3.177000000
H     2.600000000    -2.534000000    -3.741000000
H     1.776000000    -3.789000000    -3.547000000
O    -1.310000000     4.496000000    -1.863000000
H    -2.178000000     4.337000000    -1.493000000
H    -0.708000000     4.358000000    -1.132000000
O     1.933000000    -5.908000000    -3.462000000
H     2.837000000    -6.186000000    -3.610000000
H     1.846000000    -5.875000000    -2.509000000
O     2.247000000     5.048000000    -1.661000000
H     1.558000000     4.778000000    -1.054000000
H     2.976000000     4.456000000    -1.475000000
O     3.325000000     4.840000000     2.414000000
H     3.751000000     4.258000000     3.044000000
H     2.887000000     4.250000000     1.801000000
O     0.676000000     6.486000000     0.414000000
H     0.636000000     5.533000000     0.334000000
H     1.219000000     6.765000000    -0.324000000
O    -0.979000000     3.757000000     3.732000000
H    -0.412000000     4.474000000     3.448000000
H    -1.862000000     4.127000000     3.707000000
O    -0.965000000    -2.283000000     4.007000000
H    -1.721000000    -1.736000000     4.220000000
H    -0.346000000    -1.684000000     3.590000000
O     1.711000000     8.343000000     2.120000000
H     1.435000000     8.222000000     1.211000000
H     1.057000000     7.869000000     2.634000000
O    -4.921000000    -2.802000000     3.752000000
H    -5.131000000    -3.067000000     2.856000000
H    -4.639000000    -1.890000000     3.671000000
O    -5.862000000    -3.964000000     1.619000000
H    -6.442000000    -3.764000000     0.885000000
H    -5.067000000    -4.305000000     1.210000000
O    -1.947000000     0.457000000     2.910000000
H    -1.395000000     0.106000000     2.212000000
H    -1.333000000     0.696000000     3.605000000
O    -0.518000000    -5.708000000    -4.558000000
H    -0.821000000    -4.909000000    -4.127000000
H     0.395000000    -5.797000000    -4.284000000
O     0.463000000     6.097000000     3.203000000
H     1.239000000     6.064000000     3.763000000
H     0.798000000     5.931000000     2.321000000
O     1.744000000    -5.642000000     1.388000000
H     2.470000000    -5.018000000     1.360000000
H     1.258000000    -5.409000000     2.178000000
O    -4.149000000    -1.690000000     0.033000000
H    -4.407000000    -1.580000000    -0.882000000
H    -3.841000000    -2.595000000     0.088000000
O     0.614000000     3.570000000    -3.733000000
H     0.042000000     3.801000000    -3.001000000
H     0.941000000     4.409000000    -4.056000000
O     4.266000000     7.245000000     2.058000000
H     4.006000000     6.338000000     2.214000000
H     3.481000000     7.757000000     2.254000000
O     0.222000000    -4.924000000    -1.171000000
H     0.752000000    -5.101000000    -0.394000000
H    -0.366000000    -4.217000000    -0.905000000
O     2.539000000     1.416000000    -3.460000000
H     1.916000000     0.999000000    -2.865000000
H     2.080000000     2.193000000    -3.781000000
O    -3.803000000     3.781000000    -0.865000000
H    -4.405000000     3.049000000    -0.731000000
H    -4.016000000     4.397000000    -0.164000000
O     0.211000000    -4.624000000     3.835000000
H    -0.376000000    -3.871000000     3.769000000
H     0.705000000    -4.472000000     4.641000000
O    -1.091000000    -2.584000000    -4.888000000
H    -1.949000000    -2.581000000    -5.313000000
H    -0.469000000    -2.696000000    -5.607000000
O     0.300000000     0.162000000     4.423000000
H     1.231000000     0.217000000     4.209000000
H     0.231000000     0.544000000     5.298000000
O     3.895000000    -2.175000000     4.167000000
H     3.886000000    -1.425000000     4.762000000
H     4.065000000    -1.796000000     3.305000000
O    -0.209000000    -7.448000000     0.491000000
H     0.112000000    -7.743000000    -0.362000000
H     0.400000000    -6.758000000     0.751000000
O    -4.819000000    -5.984000000    -3.734000000
H    -4.053000000    -6.507000000    -3.971000000
H    -4.468000000    -5.273000000    -3.199000000
O    -3.558000000    -4.418000000     0.162000000
H    -3.446000000    -4.963000000    -0.617000000
H    -2.866000000    -4.705000000     0.757000000
O     3.992000000     0.532000000     5.581000000
H     3.847000000     1.228000000     4.940000000
H     4.793000000     0.790000000     6.037000000
O     0.083000000     6.522000000    -3.542000000
H    -0.416000000     5.825000000    -3.116000000
H     0.022000000     7.263000000    -2.940000000
O    -0.343000000     1.197000000    -5.323000000
H    -0.192000000     0.797000000    -4.466000000
H    -0.451000000     2.130000000    -5.136000000
O     2.417000000     2.062000000     3.537000000
H     2.369000000     2.262000000     2.602000000
H     1.651000000     2.494000000     3.914000000
O     3.846000000    -4.151000000     1.487000000
H     4.323000000    -3.650000000     2.149000000
H     3.856000000    -3.592000000     0.710000000
O     6.685000000     3.736000000     1.783000000
H     6.292000000     4.598000000     1.647000000
H     6.134000000     3.139000000     1.277000000
O    -1.880000000    -5.643000000     1.813000000
H    -1.389000000    -6.335000000     1.371000000
H    -1.465000000    -5.565000000     2.672000000
O     4.956000000    -0.375000000     1.903000000
H     5.110000000    -0.955000000     1.157000000
H     5.236000000     0.488000000     1.597000000
O    -5.708000000     1.839000000    -0.433000000
H    -5.878000000     1.553000000     0.465000000
H    -6.571000000     1.850000000    -0.848000000
O    -3.854000000     0.771000000    -3.172000000
H    -3.628000000     1.271000000    -3.956000000
H    -3.922000000     1.428000000    -2.480000000
