158
-3037.51515
C     1.032000000    -0.492000000    -0.903000000
H     1.696000000    -1.014000000    -1.588000000
C    -0.073000000    -1.198000000    -0.453000000
H    -0.179000000    -2.263000000    -0.647000000
C    -1.019000000    -0.610000000     0.341000000
H    -1.849000000    -1.140000000     0.584000000
C    -0.880000000     0.698000000     0.745000000
H    -1.607000000     1.224000000     1.358000000
C     0.329000000     1.401000000     0.432000000
H     0.469000000     2.406000000     0.822000000
C     1.263000000     0.860000000    -0.509000000
C     2.372000000     1.733000000    -1.138000000
O     3.173000000     1.311000000    -1.956000000
O     2.374000000     2.909000000    -0.835000000
O    -3.899000000     0.804000000     4.677000000
H    -3.738000000     1.336000000     5.456000000
H    -3.787000000     1.410000000     3.945000000
O     0.539000000    -4.605000000    -2.586000000
H     0.518000000    -4.275000000    -3.484000000
H     1.227000000    -5.271000000    -2.592000000
O     3.736000000     3.990000000     1.100000000
H     4.572000000     4.304000000     0.754000000
H     3.272000000     3.651000000     0.335000000
O     4.015000000    -0.679000000     1.822000000
H     3.736000000     0.156000000     1.447000000
H     3.448000000    -0.801000000     2.584000000
O    -4.946000000    -3.816000000     1.816000000
H    -5.694000000    -4.119000000     2.331000000
H    -5.328000000    -3.236000000     1.157000000
O     7.511000000    -0.705000000    -2.286000000
H     7.533000000     0.239000000    -2.446000000
H     6.582000000    -0.908000000    -2.178000000
O     0.236000000    -2.343000000     2.576000000
H    -0.703000000    -2.318000000     2.756000000
H     0.337000000    -3.041000000     1.929000000
O    -4.480000000     1.943000000    -0.794000000
H    -5.175000000     1.828000000    -0.146000000
H    -4.614000000     1.230000000    -1.418000000
O    -3.972000000     3.223000000     3.403000000
H    -4.015000000     3.534000000     2.499000000
H    -4.759000000     3.580000000     3.816000000
O    -0.432000000     2.871000000    -2.877000000
H    -1.289000000     3.084000000    -2.505000000
H     0.132000000     2.738000000    -2.115000000
O     1.280000000    -3.951000000     0.019000000
H     1.027000000    -4.119000000    -0.889000000
H     2.088000000    -3.442000000    -0.048000000
O     2.742000000     0.928000000    -4.417000000
H     1.795000000     0.972000000    -4.550000000
H     2.860000000     1.074000000    -3.479000000
O    -2.383000000     3.559000000    -1.165000000
H    -2.129000000     4.006000000    -0.357000000
H    -3.113000000     2.996000000    -0.906000000
O    -1.084000000     3.948000000     3.617000000
H    -0.724000000     3.185000000     4.071000000
H    -2.031000000     3.809000000     3.628000000
O    -0.060000000    -1.160000000    -5.313000000
H    -0.526000000    -0.378000000    -5.610000000
H    -0.114000000    -1.122000000    -4.358000000
O    -1.995000000    -5.581000000     1.647000000
H    -1.054000000    -5.581000000     1.823000000
H    -2.287000000    -4.706000000     1.900000000
O    -1.643000000     4.693000000     1.134000000
H    -2.226000000     5.428000000     1.323000000
H    -1.383000000     4.366000000     1.995000000
O     1.969000000    -0.486000000     3.590000000
H     1.391000000     0.239000000     3.828000000
H     1.377000000    -1.170000000     3.277000000
O    -6.231000000    -1.948000000     0.154000000
H    -6.550000000    -1.161000000     0.595000000
H    -6.005000000    -1.654000000    -0.728000000
O     3.425000000     6.742000000     0.403000000
H     2.547000000     6.691000000     0.025000000
H     3.646000000     5.836000000     0.618000000
O    -2.519000000    -2.949000000     2.859000000
H    -3.357000000    -3.331000000     2.596000000
H    -2.681000000    -2.596000000     3.734000000
O    -5.789000000    -0.195000000    -2.249000000
H    -6.125000000     0.677000000    -2.453000000
H    -5.226000000    -0.415000000    -2.991000000
O     5.094000000     0.063000000    -5.567000000
H     4.818000000    -0.321000000    -6.399000000
H     4.306000000     0.486000000    -5.226000000
O     4.486000000     3.782000000    -4.435000000
H     4.170000000     2.903000000    -4.644000000
H     3.985000000     4.040000000    -3.662000000
O     5.938000000     6.212000000    -2.406000000
H     5.896000000     7.090000000    -2.785000000
H     5.058000000     5.856000000    -2.530000000
O     0.438000000     6.263000000     0.012000000
H     0.508000000     6.260000000    -0.942000000
H    -0.181000000     5.560000000     0.209000000
O     7.880000000     2.469000000    -3.194000000
H     7.196000000     2.739000000    -2.581000000
H     7.666000000     2.926000000    -4.008000000
O    -2.138000000    -5.757000000    -1.337000000
H    -2.035000000    -6.044000000    -0.430000000
H    -1.735000000    -4.889000000    -1.361000000
O     5.675000000     2.422000000    -1.454000000
H     4.757000000     2.191000000    -1.598000000
H     5.882000000     2.055000000    -0.594000000
O     5.981000000     4.754000000    -0.052000000
H     5.960000000     5.518000000    -0.629000000
H     5.959000000     4.005000000    -0.647000000
O     0.451000000     1.482000000    -6.023000000
H    -0.199000000     0.890000000    -6.401000000
H     0.087000000     1.727000000    -5.172000000
O     0.079000000    -5.173000000     4.431000000
H     0.653000000    -5.732000000     4.954000000
H     0.455000000    -5.198000000     3.552000000
O    -6.272000000     1.568000000     1.025000000
H    -6.515000000     2.448000000     1.311000000
H    -7.038000000     1.030000000     1.227000000
O     3.134000000     4.660000000    -2.455000000
H     2.305000000     5.131000000    -2.537000000
H     2.976000000     4.014000000    -1.767000000
O     2.694000000     4.694000000     4.806000000
H     2.277000000     3.992000000     4.307000000
H     2.409000000     4.550000000     5.708000000
O     0.658000000     1.864000000     4.861000000
H     1.471000000     1.992000000     4.372000000
H     0.931000000     1.431000000     5.669000000
O     0.975000000    -5.730000000     1.932000000
H     1.731000000    -6.273000000     2.156000000
H     1.269000000    -5.205000000     1.187000000
O     0.739000000    -3.675000000    -5.179000000
H     1.342000000    -3.883000000    -5.892000000
H     0.435000000    -2.789000000    -5.372000000
O    -0.976000000    -2.644000000     5.396000000
H    -0.670000000    -3.221000000     4.696000000
H    -1.084000000    -1.792000000     4.973000000
O    -4.570000000    -1.568000000     5.545000000
H    -4.332000000    -0.751000000     5.106000000
H    -5.258000000    -1.316000000     6.162000000
O     4.579000000    -1.070000000    -2.296000000
H     4.460000000    -1.291000000    -3.220000000
H     4.138000000    -0.227000000    -2.192000000
O     1.046000000     6.409000000    -2.750000000
H     1.171000000     7.192000000    -3.287000000
H     0.399000000     5.891000000    -3.230000000
O     2.832000000     2.367000000     3.178000000
H     3.682000000     2.419000000     3.614000000
H     3.033000000     2.474000000     2.248000000
O     3.841000000    -2.685000000     0.032000000
H     3.958000000    -2.165000000    -0.763000000
H     4.101000000    -2.099000000     0.742000000
O    -3.606000000    -0.990000000    -4.162000000
H    -2.799000000    -0.639000000    -3.785000000
H    -3.563000000    -0.748000000    -5.087000000
O    -1.414000000    -0.121000000     4.614000000
H    -1.015000000     0.507000000     5.215000000
H    -2.345000000     0.099000000     4.620000000
O    -1.228000000     0.120000000    -2.954000000
H    -1.110000000     1.065000000    -3.043000000
H    -1.065000000    -0.055000000    -2.027000000
O    -6.927000000    -4.549000000    -0.809000000
H    -6.548000000    -5.271000000    -0.309000000
H    -6.424000000    -3.781000000    -0.540000000
