158
-3070.10723
C    -0.793000000     0.360000000     1.176000000
H    -1.366000000     0.738000000     2.019000000
C     0.040000000     1.267000000     0.468000000
H     0.202000000     2.303000000     0.756000000
C     0.717000000     0.794000000    -0.609000000
H     1.476000000     1.412000000    -1.062000000
C     0.568000000    -0.544000000    -1.032000000
H     1.197000000    -0.871000000    -1.856000000
C    -0.191000000    -1.465000000    -0.331000000
H    -0.389000000    -2.475000000    -0.683000000
C    -0.927000000    -0.982000000     0.822000000
C    -1.874000000    -1.908000000     1.526000000
O    -1.847000000    -3.044000000     1.253000000
O    -2.658000000    -1.568000000     2.376000000
O     3.523000000     3.978000000     1.011000000
H     3.002000000     4.456000000     0.365000000
H     4.342000000     4.471000000     1.070000000
O    -1.518000000    -5.280000000     4.444000000
H    -0.884000000    -5.547000000     3.778000000
H    -2.369000000    -5.502000000     4.068000000
O     0.064000000     5.970000000    -2.763000000
H    -0.387000000     5.422000000    -3.406000000
H    -0.619000000     6.543000000    -2.416000000
O    -0.613000000     1.642000000     5.475000000
H    -1.141000000     0.940000000     5.094000000
H    -0.435000000     1.349000000     6.369000000
O     4.874000000    -4.203000000    -3.022000000
H     5.672000000    -4.585000000    -2.656000000
H     4.493000000    -3.704000000    -2.299000000
O    -2.899000000     3.016000000    -0.183000000
H    -2.924000000     2.119000000    -0.517000000
H    -3.286000000     2.958000000     0.690000000
O     1.842000000    -3.268000000     4.012000000
H     1.585000000    -4.138000000     3.707000000
H     2.498000000    -3.436000000     4.689000000
O    -4.728000000    -7.224000000     1.571000000
H    -4.217000000    -6.503000000     1.938000000
H    -4.746000000    -7.883000000     2.265000000
O     4.373000000     0.005000000    -2.015000000
H     5.103000000     0.102000000    -1.404000000
H     3.878000000     0.820000000    -1.929000000
O     5.173000000     1.896000000     2.280000000
H     5.226000000     2.556000000     1.588000000
H     4.256000000     1.911000000     2.555000000
O    -0.778000000     4.668000000     1.154000000
H    -1.230000000     4.269000000     0.411000000
H    -1.191000000     4.277000000     1.924000000
O     2.391000000    -0.588000000     4.750000000
H     2.254000000    -1.528000000     4.631000000
H     1.895000000    -0.182000000     4.040000000
O     2.555000000     1.778000000     2.769000000
H     1.997000000     1.985000000     3.519000000
H     2.610000000     2.598000000     2.278000000
O    -4.697000000    -2.843000000     3.562000000
H    -3.982000000    -2.267000000     3.293000000
H    -4.913000000    -3.341000000     2.773000000
O     6.231000000    -1.022000000    -3.987000000
H     5.803000000    -1.757000000    -4.426000000
H     5.699000000    -0.867000000    -3.207000000
O    -2.228000000    -0.297000000     4.731000000
H    -2.377000000    -0.574000000     3.827000000
H    -1.972000000    -1.098000000     5.188000000
O     0.930000000    -1.273000000    -4.874000000
H     1.013000000    -0.352000000    -4.624000000
H     1.776000000    -1.491000000    -5.266000000
O    -1.639000000    -4.483000000    -0.950000000
H    -0.972000000    -5.138000000    -0.744000000
H    -1.788000000    -4.025000000    -0.123000000
O    -4.861000000    -0.958000000     0.775000000
H    -4.146000000    -0.923000000     1.411000000
H    -4.499000000    -1.443000000     0.033000000
O     4.914000000     2.504000000    -4.650000000
H     4.865000000     1.594000000    -4.941000000
H     4.086000000     2.653000000    -4.193000000
O    -4.153000000     2.656000000     2.102000000
H    -4.933000000     3.114000000     1.790000000
H    -4.494000000     1.919000000     2.608000000
O    -7.617000000    -0.709000000     1.676000000
H    -7.737000000    -1.647000000     1.827000000
H    -6.721000000    -0.631000000     1.349000000
O     2.798000000    -1.947000000     1.183000000
H     2.005000000    -1.447000000     0.987000000
H     2.616000000    -2.366000000     2.024000000
O    -4.288000000     1.482000000     4.745000000
H    -3.596000000     0.859000000     4.968000000
H    -5.097000000     0.974000000     4.804000000
O    -4.238000000    -2.461000000    -1.755000000
H    -4.448000000    -1.754000000    -2.365000000
H    -3.925000000    -3.173000000    -2.312000000
O     1.249000000     4.667000000    -0.635000000
H     0.893000000     5.140000000    -1.388000000
H     0.557000000     4.711000000     0.024000000
O    -2.115000000     0.783000000    -1.808000000
H    -1.942000000    -0.133000000    -1.593000000
H    -1.352000000     1.256000000    -1.474000000
O    -1.878000000     7.279000000     0.965000000
H    -1.427000000     6.434000000     0.938000000
H    -2.807000000     7.056000000     0.915000000
O     3.965000000     2.604000000    -1.311000000
H     4.518000000     3.276000000    -1.710000000
H     3.843000000     2.898000000    -0.409000000
O    -2.996000000     2.495000000    -4.051000000
H    -2.992000000     1.802000000    -3.389000000
H    -3.923000000     2.636000000    -4.244000000
O    -4.582000000    -5.220000000     5.210000000
H    -4.702000000    -4.346000000     4.840000000
H    -5.290000000    -5.740000000     4.830000000
O    -6.058000000    -0.762000000     4.959000000
H    -6.902000000    -0.708000000     4.510000000
H    -5.667000000    -1.575000000     4.638000000
O    -3.565000000    -4.890000000     2.081000000
H    -2.952000000    -4.159000000     1.994000000
H    -4.276000000    -4.679000000     1.476000000
O    -3.459000000    -4.847000000    -2.887000000
H    -2.592000000    -4.715000000    -2.503000000
H    -3.847000000    -5.549000000    -2.365000000
O     2.352000000     3.708000000    -3.977000000
H     2.085000000     4.144000000    -3.168000000
H     2.812000000     4.385000000    -4.473000000
O    -1.145000000     4.523000000    -4.478000000
H    -1.569000000     4.927000000    -5.234000000
H    -1.501000000     3.635000000    -4.450000000
O    -2.298000000    -2.773000000     6.106000000
H    -2.354000000    -3.536000000     5.530000000
H    -3.189000000    -2.656000000     6.435000000
O    -1.709000000     3.311000000     3.487000000
H    -1.665000000     2.829000000     4.313000000
H    -2.578000000     3.111000000     3.139000000
O     0.193000000    -7.353000000    -1.376000000
H     0.335000000    -7.127000000    -2.295000000
H     0.629000000    -6.654000000    -0.888000000
O     0.058000000    -4.888000000     1.862000000
H    -0.721000000    -4.335000000     1.797000000
H     0.615000000    -4.602000000     1.138000000
O     0.859000000     3.905000000     4.346000000
H     0.452000000     3.255000000     4.918000000
H     0.326000000     3.891000000     3.551000000
O    -5.595000000    -3.879000000     0.830000000
H    -5.545000000    -3.462000000    -0.030000000
H    -6.225000000    -4.590000000     0.715000000
O     3.506000000    -2.641000000    -1.284000000
H     3.338000000    -2.593000000    -0.343000000
H     3.640000000    -1.731000000    -1.550000000
O     1.350000000    -4.865000000    -0.415000000
H     1.658000000    -4.033000000    -0.772000000
H     2.051000000    -5.147000000     0.173000000
O     1.414000000     1.221000000    -4.517000000
H     0.515000000     1.542000000    -4.451000000
H     1.955000000     1.979000000    -4.295000000
O    -1.049000000     1.720000000    -5.780000000
H    -1.152000000     2.321000000    -6.518000000
H    -1.834000000     1.855000000    -5.250000000
O    -1.855000000    -0.912000000    -5.948000000
H    -1.292000000    -1.275000000    -5.265000000
H    -1.474000000    -0.056000000    -6.144000000
O     4.875000000     4.868000000    -2.501000000
H     5.307000000     5.399000000    -3.169000000
H     4.452000000     5.505000000    -1.925000000
