158
-3015.20108
C    -0.708000000    -0.145000000    -1.314000000
H    -1.366000000    -0.445000000    -2.125000000
C    -1.166000000    -0.512000000    -0.054000000
H    -1.982000000    -1.189000000     0.188000000
C    -0.466000000    -0.221000000     1.065000000
H    -0.891000000    -0.551000000     1.994000000
C     0.811000000     0.285000000     0.994000000
H     1.390000000     0.442000000     1.900000000
C     1.206000000     0.739000000    -0.244000000
H     2.149000000     1.265000000    -0.374000000
C     0.479000000     0.482000000    -1.392000000
C     1.099000000     0.803000000    -2.717000000
O     0.331000000     1.019000000    -3.613000000
O     2.278000000     0.930000000    -2.810000000
O    -3.939000000     0.708000000    -0.368000000
H    -4.639000000     1.054000000     0.187000000
H    -3.305000000     0.341000000     0.248000000
O     2.760000000    -0.296000000    -7.896000000
H     2.527000000    -0.153000000    -6.979000000
H     3.598000000     0.155000000    -8.003000000
O    -4.660000000    -4.378000000    -0.492000000
H    -4.236000000    -4.076000000    -1.295000000
H    -4.696000000    -3.603000000     0.067000000
O     3.322000000    -0.688000000     3.687000000
H     4.216000000    -0.779000000     4.016000000
H     3.282000000     0.205000000     3.344000000
O    -4.438000000    -2.557000000     4.576000000
H    -4.954000000    -3.301000000     4.886000000
H    -3.805000000    -2.941000000     3.970000000
O    -2.854000000    -3.744000000    -2.480000000
H    -2.177000000    -4.420000000    -2.493000000
H    -2.683000000    -3.218000000    -3.262000000
O    -4.918000000     1.831000000     2.922000000
H    -4.039000000     2.208000000     2.876000000
H    -4.932000000     1.358000000     3.754000000
O     1.326000000     3.955000000     0.879000000
H     0.454000000     3.572000000     0.783000000
H     1.229000000     4.855000000     0.566000000
O    -6.573000000    -1.182000000     2.204000000
H    -7.525000000    -1.206000000     2.300000000
H    -6.257000000    -0.835000000     3.038000000
O    -4.204000000    -2.239000000     1.148000000
H    -3.483000000    -2.115000000     1.766000000
H    -4.959000000    -1.837000000     1.576000000
O    -2.883000000    -2.406000000    -4.901000000
H    -2.186000000    -2.476000000    -5.553000000
H    -2.705000000    -1.582000000    -4.447000000
O     3.216000000    -1.549000000    -3.190000000
H     3.370000000    -1.754000000    -2.268000000
H     2.983000000    -0.620000000    -3.193000000
O     3.614000000     1.992000000     3.205000000
H     4.022000000     1.974000000     2.339000000
H     3.221000000     2.862000000     3.267000000
O     6.200000000     2.061000000    -3.415000000
H     5.257000000     1.899000000    -3.436000000
H     6.593000000     1.228000000    -3.679000000
O     2.230000000    -1.408000000     6.433000000
H     2.314000000    -2.344000000     6.252000000
H     2.930000000    -1.002000000     5.921000000
O    -1.950000000     0.362000000    -4.691000000
H    -1.240000000     0.705000000    -4.147000000
H    -1.508000000    -0.018000000    -5.450000000
O     1.549000000     1.120000000    -5.885000000
H     2.370000000     1.570000000    -5.689000000
H     1.129000000     1.005000000    -5.032000000
O    -5.173000000    -1.249000000    -1.813000000
H    -4.759000000    -0.436000000    -1.523000000
H    -5.052000000    -1.854000000    -1.081000000
O     6.640000000     2.006000000    -0.598000000
H     6.534000000     2.211000000    -1.527000000
H     5.775000000     2.162000000    -0.219000000
O    -1.166000000     3.116000000    -0.572000000
H    -1.040000000     3.365000000    -1.488000000
H    -1.622000000     2.275000000    -0.613000000
O     0.578000000    -3.848000000     5.643000000
H     0.600000000    -3.041000000     5.129000000
H     0.103000000    -4.470000000     5.093000000
O     4.133000000     3.096000000     0.376000000
H     4.309000000     4.015000000     0.175000000
H     3.203000000     3.074000000     0.604000000
O    -0.952000000    -5.231000000     1.285000000
H    -1.242000000    -4.345000000     1.501000000
H    -1.651000000    -5.798000000     1.610000000
O     0.733000000     1.485000000     7.124000000
H     0.557000000     0.545000000     7.146000000
H    -0.098000000     1.878000000     6.857000000
O     0.574000000    -1.454000000     4.213000000
H    -0.085000000    -0.786000000     4.403000000
H     1.389000000    -1.091000000     4.560000000
O    -1.516000000     0.503000000     4.788000000
H    -1.682000000     0.855000000     3.913000000
H    -1.749000000     1.217000000     5.381000000
O    -2.130000000    -3.046000000     3.471000000
H    -1.715000000    -3.856000000     3.770000000
H    -1.527000000    -2.354000000     3.744000000
O     1.828000000    -4.174000000    -3.708000000
H     2.383000000    -3.443000000    -3.434000000
H     1.359000000    -4.430000000    -2.914000000
O    -4.483000000     0.080000000     4.973000000
H    -4.564000000    -0.842000000     4.726000000
H    -3.590000000     0.161000000     5.307000000
O    -1.060000000     4.362000000    -5.767000000
H    -1.924000000     3.986000000    -5.601000000
H    -1.237000000     5.149000000    -6.282000000
O     4.261000000     1.670000000    -6.039000000
H     5.043000000     1.170000000    -6.274000000
H     4.449000000     2.560000000    -6.336000000
O     0.049000000     2.961000000    -7.695000000
H    -0.303000000     3.561000000    -7.037000000
H     0.238000000     2.158000000    -7.210000000
O    -0.172000000    -2.126000000    -5.956000000
H     0.081000000    -1.846000000    -6.836000000
H     0.626000000    -2.030000000    -5.436000000
O    -1.993000000     1.795000000     2.135000000
H    -1.926000000     2.743000000     2.018000000
H    -1.414000000     1.430000000     1.467000000
O     6.165000000    -1.547000000    -1.283000000
H     5.252000000    -1.821000000    -1.195000000
H     6.190000000    -0.669000000    -0.903000000
O     5.197000000    -1.774000000    -5.362000000
H     4.381000000    -1.888000000    -4.875000000
H     5.790000000    -1.354000000    -4.740000000
O    -3.128000000     1.882000000    -2.690000000
H    -2.806000000     1.584000000    -3.540000000
H    -3.015000000     1.127000000    -2.113000000
O     3.689000000    -5.203000000     2.496000000
H     3.350000000    -5.997000000     2.082000000
H     2.959000000    -4.585000000     2.463000000
O     2.725000000     4.403000000     3.173000000
H     2.096000000     4.654000000     3.850000000
H     2.221000000     4.421000000     2.359000000
O     2.199000000    -2.689000000     2.046000000
H     2.612000000    -2.104000000     2.682000000
H     1.513000000    -2.157000000     1.643000000
O    -0.266000000     3.696000000    -3.362000000
H    -0.496000000     3.910000000    -4.266000000
H    -0.029000000     2.769000000    -3.389000000
O     4.380000000     2.068000000     5.697000000
H     4.943000000     2.837000000     5.614000000
H     3.854000000     2.069000000     4.897000000
O     3.835000000     6.054000000    -2.083000000
H     4.576000000     6.089000000    -1.478000000
H     3.749000000     5.126000000    -2.301000000
O     3.320000000     3.238000000    -3.883000000
H     2.576000000     2.700000000    -3.615000000
H     3.723000000     2.749000000    -4.600000000
O     3.772000000    -2.563000000    -0.506000000
H     4.068000000    -3.446000000    -0.729000000
H     3.540000000    -2.616000000     0.422000000
O    -1.282000000    -5.445000000     4.260000000
H    -1.245000000    -5.936000000     3.439000000
H    -1.909000000    -5.928000000     4.799000000
O    -5.971000000     1.872000000    -2.560000000
H    -6.380000000     1.610000000    -1.735000000
H    -5.066000000     2.077000000    -2.324000000
O    -5.351000000    -0.045000000    -4.172000000
H    -5.640000000     0.704000000    -3.650000000
H    -5.110000000    -0.708000000    -3.525000000
