158
-3027.39374
C     1.016000000    -0.346000000    -1.059000000
H     1.667000000    -0.639000000    -1.879000000
C    -0.179000000    -1.078000000    -0.806000000
H    -0.441000000    -1.938000000    -1.417000000
C    -0.979000000    -0.687000000     0.225000000
H    -1.799000000    -1.260000000     0.557000000
C    -0.620000000     0.369000000     1.076000000
H    -1.298000000     0.724000000     1.848000000
C     0.497000000     1.125000000     0.809000000
H     0.725000000     1.967000000     1.457000000
C     1.358000000     0.790000000    -0.275000000
C     2.615000000     1.588000000    -0.446000000
O     3.572000000     1.084000000    -0.984000000
O     2.613000000     2.761000000    -0.012000000
O     2.883000000    -3.191000000     0.300000000
H     3.512000000    -2.472000000     0.248000000
H     3.129000000    -3.776000000    -0.418000000
O    -1.896000000    -4.105000000     0.048000000
H    -2.670000000    -3.577000000    -0.146000000
H    -1.899000000    -4.790000000    -0.621000000
O     0.077000000     5.059000000     3.067000000
H     0.047000000     4.586000000     3.898000000
H     0.985000000     4.977000000     2.777000000
O     6.699000000    -2.700000000     1.114000000
H     6.278000000    -1.905000000     0.787000000
H     7.536000000    -2.400000000     1.468000000
O     3.498000000     2.030000000    -3.448000000
H     3.390000000     1.662000000    -2.571000000
H     3.737000000     2.944000000    -3.296000000
O    -3.321000000    -3.282000000    -3.693000000
H    -3.014000000    -4.184000000    -3.775000000
H    -2.723000000    -2.774000000    -4.242000000
O     1.512000000     2.876000000     6.070000000
H     1.843000000     3.553000000     5.480000000
H     0.561000000     2.907000000     5.961000000
O    -2.820000000     1.542000000     3.368000000
H    -2.573000000     1.138000000     4.200000000
H    -3.437000000     0.925000000     2.976000000
O    -3.232000000     5.610000000     0.631000000
H    -3.155000000     4.678000000     0.835000000
H    -4.150000000     5.726000000     0.384000000
O    -5.547000000    -3.679000000     1.910000000
H    -5.834000000    -3.495000000     1.016000000
H    -6.129000000    -3.155000000     2.461000000
O     0.770000000    -4.717000000    -1.685000000
H     0.144000000    -5.440000000    -1.675000000
H     0.467000000    -4.128000000    -0.993000000
O     0.012000000     3.311000000    -2.832000000
H    -0.776000000     3.395000000    -2.294000000
H     0.604000000     3.984000000    -2.494000000
O    -0.442000000     6.121000000     0.160000000
H    -1.046000000     5.742000000    -0.479000000
H    -0.433000000     5.493000000     0.882000000
O    -2.748000000    -0.470000000    -4.184000000
H    -1.818000000    -0.333000000    -4.365000000
H    -2.883000000    -0.081000000    -3.320000000
O    -1.106000000     2.859000000     5.176000000
H    -1.487000000     3.124000000     4.338000000
H    -1.457000000     1.983000000     5.332000000
O    -3.126000000    -4.810000000     3.257000000
H    -3.425000000    -4.809000000     2.348000000
H    -2.615000000    -4.005000000     3.342000000
O     3.968000000    -2.756000000    -2.755000000
H     4.289000000    -3.546000000    -3.191000000
H     3.014000000    -2.835000000    -2.789000000
O    -0.846000000    -3.443000000    -5.716000000
H    -0.119000000    -3.099000000    -5.197000000
H    -0.939000000    -4.351000000    -5.426000000
O     2.399000000     5.454000000     0.908000000
H     2.692000000     4.545000000     0.847000000
H     1.871000000     5.589000000     0.122000000
O    -2.384000000     3.535000000    -1.524000000
H    -3.130000000     3.797000000    -0.985000000
H    -2.196000000     4.303000000    -2.063000000
O    -1.798000000     0.347000000     5.800000000
H    -1.741000000     0.177000000     6.740000000
H    -1.518000000    -0.472000000     5.391000000
O    -0.175000000     0.759000000    -4.470000000
H    -0.512000000     1.154000000    -5.274000000
H     0.078000000     1.503000000    -3.924000000
O    -6.732000000    -4.291000000    -0.593000000
H    -5.992000000    -3.872000000    -1.032000000
H    -6.388000000    -5.133000000    -0.294000000
O     6.189000000    -1.043000000    -1.897000000
H     5.368000000    -1.458000000    -2.163000000
H     5.966000000    -0.561000000    -1.100000000
O     5.768000000     3.714000000    -3.594000000
H     5.916000000     4.147000000    -4.434000000
H     5.455000000     2.840000000    -3.827000000
O     4.744000000     5.182000000    -1.636000000
H     5.212000000     4.805000000    -2.381000000
H     5.208000000     5.998000000    -1.450000000
O    -4.759000000    -1.817000000     4.743000000
H    -4.743000000    -1.911000000     5.696000000
H    -5.139000000    -0.952000000     4.594000000
O     8.514000000     2.438000000    -0.765000000
H     8.943000000     3.190000000    -1.175000000
H     7.602000000     2.709000000    -0.664000000
O    -6.583000000     0.970000000    -0.528000000
H    -6.405000000     1.618000000    -1.210000000
H    -7.327000000     1.329000000    -0.044000000
O     1.332000000    -3.576000000    -4.046000000
H     1.087000000    -3.940000000    -3.195000000
H     1.995000000    -4.179000000    -4.382000000
O     5.533000000     2.842000000    -0.554000000
H     4.998000000     3.623000000    -0.701000000
H     4.957000000     2.112000000    -0.779000000
O    -4.186000000    -3.084000000    -1.143000000
H    -4.109000000    -2.147000000    -0.961000000
H    -4.018000000    -3.159000000    -2.082000000
O    -4.132000000     2.955000000     1.583000000
H    -3.445000000     2.410000000     1.969000000
H    -4.855000000     2.906000000     2.208000000
O    -4.500000000    -0.133000000     2.185000000
H    -5.376000000     0.145000000     2.451000000
H    -4.622000000    -0.504000000     1.311000000
O     2.110000000     4.869000000    -1.877000000
H     2.309000000     4.027000000    -1.469000000
H     2.967000000     5.254000000    -2.063000000
O     4.674000000     0.626000000     3.622000000
H     4.608000000     1.566000000     3.790000000
H     4.025000000     0.233000000     4.206000000
O    -0.074000000    -4.606000000     2.253000000
H     0.138000000    -3.710000000     1.992000000
H    -1.007000000    -4.697000000     2.063000000
O     5.122000000     6.415000000     1.109000000
H     5.704000000     5.911000000     1.677000000
H     4.288000000     5.947000000     1.143000000
O     1.925000000    -0.609000000    -5.472000000
H     1.943000000    -1.416000000    -4.957000000
H     1.212000000    -0.097000000    -5.090000000
O    -0.736000000    -1.948000000     4.974000000
H    -0.217000000    -2.746000000     5.076000000
H    -1.331000000    -2.140000000     4.249000000
O     2.743000000    -1.519000000     4.466000000
H     2.860000000    -1.565000000     5.415000000
H     1.800000000    -1.413000000     4.346000000
O    -2.561000000    -1.913000000     3.106000000
H    -2.755000000    -1.111000000     2.620000000
H    -3.301000000    -2.016000000     3.704000000
O     4.014000000     3.135000000     2.264000000
H     4.937000000     2.989000000     2.059000000
H     3.544000000     2.811000000     1.495000000
O    -4.351000000    -0.339000000    -0.681000000
H    -5.243000000     0.002000000    -0.751000000
H    -3.910000000    -0.019000000    -1.468000000
O     3.054000000     4.468000000     4.241000000
H     2.938000000     5.345000000     3.877000000
H     3.538000000     3.990000000     3.567000000
O     4.937000000    -0.274000000     1.055000000
H     4.597000000     0.356000000     0.420000000
H     4.651000000     0.063000000     1.904000000
O     1.153000000    -2.080000000     2.069000000
H     1.926000000    -2.179000000     1.513000000
H     0.608000000    -1.440000000     1.610000000
O    -2.539000000     0.976000000    -1.970000000
H    -2.052000000     0.726000000    -1.185000000
H    -2.546000000     1.933000000    -1.953000000
