158
-3011.51975
C     1.147000000    -0.224000000    -0.953000000
H     1.910000000    -0.450000000    -1.694000000
C     0.222000000    -1.198000000    -0.561000000
H     0.292000000    -2.242000000    -0.854000000
C    -0.807000000    -0.823000000     0.312000000
H    -1.540000000    -1.577000000     0.524000000
C    -0.990000000     0.454000000     0.763000000
H    -1.738000000     0.633000000     1.530000000
C     0.030000000     1.370000000     0.502000000
H    -0.113000000     2.388000000     0.855000000
C     0.988000000     1.069000000    -0.433000000
C     1.953000000     2.139000000    -0.975000000
O     2.715000000     1.901000000    -1.895000000
O     1.983000000     3.202000000    -0.448000000
O     1.366000000    -0.401000000    -6.660000000
H     1.311000000     0.021000000    -5.803000000
H     2.162000000    -0.930000000    -6.616000000
O     5.560000000    -2.004000000     1.104000000
H     5.511000000    -2.181000000     2.044000000
H     5.072000000    -2.721000000     0.700000000
O    -3.640000000    -2.932000000    -0.867000000
H    -4.121000000    -3.646000000    -0.448000000
H    -2.742000000    -3.256000000    -0.934000000
O     1.585000000    -2.956000000     2.492000000
H     1.254000000    -2.265000000     3.066000000
H     1.984000000    -2.487000000     1.759000000
O    -5.856000000    -0.947000000     0.967000000
H    -5.326000000    -0.794000000     1.750000000
H    -5.909000000    -1.900000000     0.896000000
O     0.536000000     4.191000000     3.742000000
H     1.236000000     4.256000000     3.092000000
H    -0.262000000     4.400000000     3.257000000
O     4.524000000     6.772000000    -1.789000000
H     4.248000000     6.988000000    -0.899000000
H     5.030000000     7.533000000    -2.075000000
O     2.187000000     2.959000000    -4.691000000
H     1.240000000     2.887000000    -4.567000000
H     2.528000000     2.105000000    -4.429000000
O     5.988000000     2.611000000    -4.569000000
H     6.617000000     3.288000000    -4.819000000
H     5.508000000     2.991000000    -3.832000000
O    -6.389000000     0.023000000    -1.807000000
H    -6.865000000    -0.173000000    -0.999000000
H    -5.493000000    -0.267000000    -1.633000000
O    -4.392000000     1.418000000     0.796000000
H    -4.153000000     0.943000000     0.000000000
H    -4.390000000     0.752000000     1.483000000
O    -4.340000000    -2.246000000    -3.711000000
H    -4.394000000    -2.622000000    -2.832000000
H    -5.251000000    -2.091000000    -3.961000000
O    -0.571000000    -7.026000000     1.715000000
H    -0.519000000    -7.831000000     2.230000000
H     0.021000000    -6.419000000     2.159000000
O    -1.864000000     5.113000000     2.979000000
H    -2.428000000     4.349000000     2.853000000
H    -1.928000000     5.596000000     2.155000000
O     1.324000000     1.911000000     4.930000000
H     1.790000000     1.348000000     4.312000000
H     0.913000000     2.580000000     4.381000000
O     4.441000000    -2.267000000    -2.411000000
H     4.423000000    -1.352000000    -2.130000000
H     5.068000000    -2.283000000    -3.134000000
O     1.252000000     5.441000000     1.021000000
H     1.663000000     4.847000000     0.393000000
H     0.713000000     6.022000000     0.485000000
O     4.395000000     1.030000000    -6.020000000
H     4.840000000     1.704000000    -5.505000000
H     3.926000000     0.504000000    -5.371000000
O    -0.788000000     3.142000000    -3.933000000
H    -1.361000000     2.794000000    -3.250000000
H    -1.257000000     2.972000000    -4.750000000
O     2.622000000     0.096000000    -4.230000000
H     2.440000000     0.458000000    -3.363000000
H     2.215000000    -0.771000000    -4.218000000
O     4.778000000     3.367000000    -2.003000000
H     4.007000000     2.812000000    -1.890000000
H     4.844000000     3.856000000    -1.182000000
O     4.085000000    -3.929000000    -0.343000000
H     3.285000000    -4.378000000    -0.616000000
H     4.269000000    -3.314000000    -1.054000000
O     6.328000000     0.864000000    -0.263000000
H     5.802000000     0.732000000    -1.052000000
H     5.689000000     0.885000000     0.450000000
O     1.313000000    -5.643000000     3.265000000
H     1.719000000    -4.803000000     3.050000000
H     0.996000000    -5.534000000     4.162000000
O    -3.567000000    -0.342000000    -1.171000000
H    -3.747000000    -1.281000000    -1.219000000
H    -2.617000000    -0.275000000    -1.264000000
O     1.883000000     7.777000000    -2.743000000
H     2.769000000     8.023000000    -2.478000000
H     1.672000000     7.019000000    -2.197000000
O     5.333000000     4.904000000     0.492000000
H     4.933000000     5.757000000     0.662000000
H     4.801000000     4.286000000     0.992000000
O    -1.362000000    -4.714000000    -1.400000000
H    -0.427000000    -4.873000000    -1.270000000
H    -1.492000000    -4.811000000    -2.344000000
O     2.770000000     0.696000000     2.514000000
H     3.339000000    -0.038000000     2.748000000
H     2.070000000     0.300000000     1.996000000
O     2.390000000    -2.852000000    -3.967000000
H     3.233000000    -2.497000000    -3.685000000
H     2.461000000    -3.793000000    -3.810000000
O    -4.827000000     3.964000000    -0.303000000
H    -5.494000000     3.767000000    -0.962000000
H    -4.623000000     3.116000000     0.092000000
O    -2.278000000     2.340000000     3.189000000
H    -2.569000000     2.286000000     4.099000000
H    -2.212000000     1.429000000     2.904000000
O     0.872000000     4.899000000    -2.375000000
H     1.243000000     4.372000000    -1.667000000
H     0.232000000     4.322000000    -2.792000000
O    -3.151000000    -3.918000000     2.553000000
H    -4.004000000    -3.926000000     2.118000000
H    -2.816000000    -4.808000000     2.438000000
O    -0.281000000    -2.028000000    -4.017000000
H     0.560000000    -2.465000000    -3.883000000
H    -0.925000000    -2.735000000    -3.997000000
O    -2.030000000     0.244000000    -3.743000000
H    -1.292000000    -0.348000000    -3.884000000
H    -2.804000000    -0.286000000    -3.937000000
O    -4.444000000    -0.289000000     3.289000000
H    -5.151000000     0.030000000     3.850000000
H    -4.052000000    -1.009000000     3.783000000
O    -1.275000000    -3.264000000     4.531000000
H    -1.407000000    -3.947000000     5.189000000
H    -1.932000000    -3.449000000     3.859000000
O    -4.609000000    -2.437000000     5.270000000
H    -4.172000000    -3.247000000     5.006000000
H    -5.196000000    -2.702000000     5.979000000
O    -5.599000000    -3.809000000     1.180000000
H    -5.803000000    -4.253000000     0.357000000
H    -6.417000000    -3.837000000     1.677000000
O     3.718000000     5.387000000    -4.246000000
H     3.090000000     4.666000000    -4.215000000
H     3.955000000     5.538000000    -3.330000000
O     3.714000000     3.147000000     1.673000000
H     3.049000000     3.308000000     1.003000000
H     3.525000000     2.264000000     1.990000000
O     1.251000000    -4.533000000     0.146000000
H     1.737000000    -3.756000000     0.421000000
H     0.691000000    -4.743000000     0.894000000
O     4.800000000     0.371000000    -2.467000000
H     4.052000000     0.969000000    -2.447000000
H     5.393000000     0.752000000    -3.115000000
O     0.116000000    -7.244000000    -1.007000000
H    -0.711000000    -6.762000000    -1.023000000
H     0.339000000    -7.307000000    -0.079000000
O     0.430000000    -1.276000000     4.194000000
H    -0.164000000    -2.008000000     4.027000000
H     0.329000000    -1.095000000     5.128000000
O    -3.002000000     3.155000000    -2.416000000
H    -3.625000000     3.239000000    -1.694000000
H    -3.186000000     2.294000000    -2.792000000
O     2.423000000    -5.585000000    -3.556000000
H     3.316000000    -5.917000000    -3.652000000
H     2.100000000    -5.992000000    -2.753000000
