158
-3034.28972
C     0.847000000    -0.150000000    -1.120000000
H     1.463000000    -0.253000000    -2.010000000
C     0.122000000    -1.155000000    -0.573000000
H     0.131000000    -2.186000000    -0.919000000
C    -0.750000000    -0.885000000     0.402000000
H    -1.472000000    -1.650000000     0.847000000
C    -0.817000000     0.354000000     0.958000000
H    -1.357000000     0.456000000     1.896000000
C    -0.114000000     1.376000000     0.355000000
H    -0.216000000     2.390000000     0.733000000
C     0.759000000     1.186000000    -0.679000000
C     1.548000000     2.320000000    -1.361000000
O     2.349000000     2.028000000    -2.244000000
O     1.442000000     3.449000000    -1.028000000
O     3.933000000    -2.108000000     2.044000000
H     4.193000000    -1.788000000     2.908000000
H     3.039000000    -1.787000000     1.929000000
O    -3.827000000    -2.933000000    -1.636000000
H    -4.332000000    -3.626000000    -1.210000000
H    -3.088000000    -3.389000000    -2.040000000
O     1.641000000    -0.935000000     2.186000000
H     1.062000000    -0.861000000     1.428000000
H     1.053000000    -1.120000000     2.919000000
O    -4.853000000    -2.189000000     1.073000000
H    -4.547000000    -2.200000000     0.167000000
H    -4.132000000    -2.569000000     1.575000000
O     0.713000000     5.914000000     3.365000000
H     0.323000000     5.735000000     2.510000000
H    -0.007000000     6.267000000     3.888000000
O     6.304000000    -1.922000000    -2.209000000
H     6.014000000    -2.357000000    -1.407000000
H     5.634000000    -1.260000000    -2.378000000
O     3.128000000    -4.701000000     2.163000000
H     3.503000000    -3.821000000     2.156000000
H     3.312000000    -5.034000000     3.041000000
O    -0.079000000    -3.910000000     3.301000000
H     0.653000000    -3.313000000     3.460000000
H    -0.788000000    -3.571000000     3.848000000
O     2.276000000    -2.808000000     4.759000000
H     1.603000000    -2.226000000     5.112000000
H     3.094000000    -2.324000000     4.872000000
O     2.293000000     2.063000000    -4.914000000
H     2.411000000     1.935000000    -3.973000000
H     2.220000000     1.176000000    -5.268000000
O     4.672000000     2.685000000    -2.890000000
H     4.525000000     3.630000000    -2.924000000
H     3.850000000     2.326000000    -2.557000000
O    -4.082000000     3.046000000    -0.770000000
H    -3.364000000     3.559000000    -1.142000000
H    -4.095000000     2.241000000    -1.289000000
O     6.598000000     1.976000000    -0.987000000
H     6.007000000     2.437000000    -1.582000000
H     6.021000000     1.440000000    -0.443000000
O    -1.988000000     5.620000000    -1.210000000
H    -1.741000000     5.220000000    -2.044000000
H    -2.914000000     5.839000000    -1.315000000
O    -2.361000000    -6.709000000     1.663000000
H    -1.641000000    -7.300000000     1.884000000
H    -2.039000000    -6.210000000     0.912000000
O    -2.096000000     5.073000000     2.288000000
H    -1.487000000     4.817000000     1.595000000
H    -2.849000000     4.493000000     2.171000000
O     2.534000000     4.008000000     4.129000000
H     2.884000000     3.924000000     3.242000000
H     1.923000000     4.743000000     4.077000000
O     2.780000000    -2.050000000    -3.430000000
H     3.068000000    -1.433000000    -2.757000000
H     3.516000000    -2.099000000    -4.040000000
O    -0.029000000     5.323000000     0.658000000
H     0.517000000     4.651000000     0.248000000
H    -0.646000000     5.580000000    -0.027000000
O    -1.699000000     4.051000000    -3.442000000
H    -1.719000000     3.197000000    -3.010000000
H    -2.425000000     4.022000000    -4.064000000
O     5.295000000     0.931000000    -5.105000000
H     4.764000000     1.576000000    -4.637000000
H     4.823000000     0.106000000    -4.992000000
O     6.326000000     4.921000000    -0.214000000
H     5.402000000     5.171000000    -0.232000000
H     6.338000000     4.083000000     0.249000000
O     2.543000000     4.594000000    -5.177000000
H     2.331000000     3.660000000    -5.179000000
H     1.931000000     4.977000000    -4.549000000
O     3.403000000    -4.948000000    -2.660000000
H     2.561000000    -4.864000000    -3.108000000
H     3.774000000    -4.066000000    -2.679000000
O     5.120000000     0.360000000     0.462000000
H     4.493000000     0.504000000     1.171000000
H     5.539000000    -0.473000000     0.678000000
O     1.339000000    -6.150000000     4.477000000
H     1.088000000    -5.378000000     3.970000000
H     0.511000000    -6.588000000     4.674000000
O     0.862000000    -4.086000000     0.738000000
H     1.777000000    -4.258000000     0.960000000
H     0.439000000    -3.920000000     1.581000000
O    -4.628000000    -0.390000000    -2.344000000
H    -4.165000000    -1.153000000    -1.999000000
H    -5.509000000    -0.458000000    -1.976000000
O     1.772000000     7.597000000    -4.090000000
H     2.289000000     7.265000000    -4.824000000
H     1.543000000     6.816000000    -3.586000000
O     3.537000000     5.083000000    -1.500000000
H     2.891000000     5.696000000    -1.149000000
H     3.053000000     4.265000000    -1.614000000
O    -1.902000000    -4.607000000    -2.990000000
H    -1.148000000    -4.065000000    -3.224000000
H    -2.240000000    -4.922000000    -3.828000000
O     3.005000000     1.360000000     2.837000000
H     3.231000000     1.591000000     3.738000000
H     2.749000000     0.439000000     2.883000000
O     0.421000000    -3.021000000    -3.839000000
H     1.256000000    -2.646000000    -3.558000000
H     0.642000000    -3.906000000    -4.129000000
O    -4.319000000     3.487000000     1.834000000
H    -4.605000000     2.595000000     2.029000000
H    -4.388000000     3.557000000     0.881000000
O     0.831000000     5.071000000    -3.212000000
H     0.656000000     4.566000000    -2.418000000
H     0.028000000     4.992000000    -3.727000000
O    -3.626000000    -4.412000000     2.623000000
H    -4.518000000    -4.751000000     2.689000000
H    -3.097000000    -5.174000000     2.388000000
O    -0.254000000    -0.849000000    -5.879000000
H     0.580000000    -1.070000000    -6.295000000
H    -0.492000000    -1.635000000    -5.387000000
O    -0.443000000     1.611000000    -4.876000000
H    -0.479000000     0.750000000    -5.292000000
H     0.431000000     1.942000000    -5.083000000
O    -5.403000000     0.903000000     2.303000000
H    -5.796000000     0.399000000     3.016000000
H    -4.944000000     0.250000000     1.773000000
O    -2.132000000    -2.771000000     4.367000000
H    -2.701000000    -2.068000000     4.053000000
H    -2.634000000    -3.572000000     4.214000000
O    -3.960000000    -0.742000000     4.421000000
H    -4.452000000    -1.365000000     4.954000000
H    -4.263000000     0.117000000     4.714000000
O    -5.053000000    -4.826000000    -0.191000000
H    -5.055000000    -5.519000000    -0.851000000
H    -5.880000000    -4.939000000     0.278000000
O     3.773000000     3.695000000     1.290000000
H     3.178000000     3.576000000     0.550000000
H     3.738000000     2.863000000     1.762000000
O     1.902000000     7.157000000    -0.636000000
H     0.977000000     7.055000000    -0.416000000
H     1.933000000     7.945000000    -1.179000000
O    -1.309000000    -5.344000000    -0.466000000
H    -1.464000000    -4.911000000    -1.306000000
H    -0.406000000    -5.119000000    -0.244000000
O     4.129000000    -0.042000000    -1.863000000
H     3.327000000     0.479000000    -1.824000000
H     4.564000000     0.125000000    -1.027000000
O     0.177000000    -0.984000000     5.042000000
H    -0.659000000    -1.450000000     5.048000000
H    -0.042000000    -0.095000000     5.321000000
O    -1.610000000     1.726000000    -2.271000000
H    -1.813000000     0.925000000    -1.788000000
H    -1.070000000     1.433000000    -3.006000000
