158
-3023.89209
C     1.175000000     0.097000000    -0.848000000
H     2.154000000     0.052000000    -1.319000000
C     0.893000000    -0.871000000     0.073000000
H     1.544000000    -1.696000000     0.352000000
C    -0.257000000    -0.843000000     0.851000000
H    -0.419000000    -1.596000000     1.588000000
C    -1.142000000     0.202000000     0.642000000
H    -1.969000000     0.390000000     1.322000000
C    -0.874000000     1.137000000    -0.378000000
H    -1.623000000     1.874000000    -0.656000000
C     0.254000000     1.052000000    -1.145000000
C     0.524000000     2.000000000    -2.238000000
O     1.314000000     1.717000000    -3.123000000
O     0.115000000     3.179000000    -2.021000000
O     3.178000000    -0.370000000    -7.493000000
H     2.342000000    -0.331000000    -7.958000000
H     2.974000000    -0.074000000    -6.606000000
O     5.569000000     0.918000000     1.777000000
H     4.742000000     0.522000000     2.051000000
H     6.227000000     0.516000000     2.345000000
O    -1.609000000     1.810000000    -7.611000000
H    -0.962000000     1.548000000    -6.955000000
H    -1.827000000     0.999000000    -8.070000000
O     1.182000000    -0.180000000     4.459000000
H     0.990000000     0.031000000     5.373000000
H     1.152000000     0.663000000     4.007000000
O    -3.746000000    -3.890000000     1.749000000
H    -3.997000000    -4.491000000     1.048000000
H    -2.793000000    -3.966000000     1.800000000
O     0.013000000    -2.855000000     4.165000000
H    -0.780000000    -2.774000000     4.694000000
H     0.207000000    -1.961000000     3.884000000
O    -1.307000000     2.994000000     3.006000000
H    -1.659000000     2.974000000     2.116000000
H    -1.528000000     3.867000000     3.330000000
O     1.484000000     4.898000000    -3.346000000
H     1.236000000     4.795000000    -4.265000000
H     1.087000000     4.146000000    -2.906000000
O    -2.352000000     4.239000000     0.389000000
H    -2.401000000     5.053000000     0.891000000
H    -3.265000000     4.006000000     0.221000000
O    -2.432000000    -6.574000000     0.931000000
H    -1.815000000    -5.876000000     1.153000000
H    -3.261000000    -6.121000000     0.779000000
O    -3.013000000    -4.556000000    -2.847000000
H    -2.772000000    -4.255000000    -3.723000000
H    -2.298000000    -4.256000000    -2.285000000
O     4.038000000     6.263000000    -3.519000000
H     3.111000000     6.023000000    -3.526000000
H     4.117000000     6.890000000    -2.800000000
O    -4.376000000     1.638000000     3.536000000
H    -3.883000000     0.843000000     3.737000000
H    -4.811000000     1.865000000     4.358000000
O     4.745000000     3.164000000     0.030000000
H     4.549000000     2.775000000    -0.822000000
H     5.333000000     2.536000000     0.450000000
O     3.108000000     3.373000000    -7.413000000
H     2.449000000     2.999000000    -6.829000000
H     3.093000000     2.808000000    -8.185000000
O     5.231000000     3.051000000    -5.294000000
H     5.449000000     2.149000000    -5.060000000
H     4.476000000     2.972000000    -5.877000000
O     5.296000000     0.661000000    -2.949000000
H     4.777000000     1.463000000    -2.880000000
H     5.169000000     0.371000000    -3.852000000
O     3.266000000    -1.701000000    -2.947000000
H     3.680000000    -1.887000000    -2.104000000
H     2.697000000    -2.454000000    -3.105000000
O     0.152000000     6.279000000     0.414000000
H     0.720000000     5.565000000     0.123000000
H    -0.631000000     6.199000000    -0.131000000
O    -5.284000000     4.036000000    -0.042000000
H    -5.626000000     3.941000000    -0.931000000
H    -5.234000000     3.140000000     0.292000000
O     1.118000000     2.891000000    -5.730000000
H     0.383000000     3.504000000    -5.720000000
H     1.100000000     2.481000000    -4.865000000
O    -0.830000000    -0.346000000    -4.806000000
H    -1.751000000    -0.149000000    -4.636000000
H    -0.381000000    -0.110000000    -3.993000000
O    -1.009000000     4.486000000    -5.090000000
H    -1.056000000     4.428000000    -4.136000000
H    -1.901000000     4.701000000    -5.361000000
O     5.125000000    -0.885000000    -0.597000000
H     5.136000000    -0.252000000    -1.315000000
H     5.242000000    -0.354000000     0.191000000
O    -1.545000000    -1.051000000     6.110000000
H    -0.832000000    -0.460000000     6.354000000
H    -2.309000000    -0.706000000     6.572000000
O     3.095000000    -3.252000000     1.979000000
H     2.811000000    -3.748000000     1.211000000
H     2.772000000    -3.758000000     2.724000000
O     3.530000000    -0.805000000     3.115000000
H     2.720000000    -0.749000000     3.623000000
H     3.440000000    -1.613000000     2.610000000
O    -5.049000000    -1.033000000    -1.078000000
H    -5.063000000    -1.015000000    -2.035000000
H    -5.969000000    -1.112000000    -0.827000000
O     2.407000000    -4.057000000     4.584000000
H     2.605000000    -4.005000000     5.519000000
H     1.604000000    -3.546000000     4.480000000
O    -2.841000000     6.866000000    -0.426000000
H    -2.364000000     6.189000000    -0.905000000
H    -3.691000000     6.916000000    -0.864000000
O    -4.487000000    -1.075000000     2.006000000
H    -4.244000000    -1.849000000     2.515000000
H    -4.451000000    -1.366000000     1.095000000
O    -0.932000000    -4.287000000     1.841000000
H    -0.391000000    -3.917000000     2.539000000
H    -0.348000000    -4.330000000     1.083000000
O     1.378000000     1.807000000     2.706000000
H     1.465000000     1.401000000     1.844000000
H     0.527000000     2.245000000     2.680000000
O    -0.528000000    -4.159000000    -1.168000000
H    -0.972000000    -3.419000000    -0.754000000
H     0.166000000    -3.758000000    -1.691000000
O    -4.893000000     4.297000000     2.674000000
H    -5.526000000     4.328000000     1.957000000
H    -4.497000000     3.428000000     2.608000000
O    -1.309000000     2.351000000     5.753000000
H    -2.145000000     1.911000000     5.911000000
H    -1.370000000     2.665000000     4.851000000
O    -1.602000000     5.273000000    -2.277000000
H    -0.987000000     4.571000000    -2.064000000
H    -2.400000000     4.819000000    -2.546000000
O     2.799000000     0.223000000    -4.909000000
H     2.200000000     0.932000000    -4.672000000
H     2.945000000    -0.251000000    -4.091000000
O    -4.945000000    -4.040000000     4.244000000
H    -4.843000000    -3.997000000     3.293000000
H    -4.793000000    -4.960000000     4.460000000
O    -2.143000000    -1.993000000    -1.242000000
H    -3.048000000    -1.683000000    -1.203000000
H    -1.625000000    -1.261000000    -0.905000000
O    -4.463000000     1.473000000     0.527000000
H    -4.138000000     0.993000000     1.288000000
H    -4.773000000     0.792000000    -0.071000000
O     5.982000000    -3.486000000     2.147000000
H     6.288000000    -3.791000000     1.293000000
H     5.119000000    -3.111000000     1.972000000
O     0.309000000     7.547000000    -2.790000000
H     0.777000000     6.815000000    -2.388000000
H    -0.502000000     7.161000000    -3.121000000
O     1.789000000     4.173000000    -0.334000000
H     1.177000000     3.707000000    -0.905000000
H     2.369000000     3.490000000     0.002000000
O     1.900000000    -4.900000000     0.078000000
H     2.292000000    -4.766000000    -0.785000000
H     1.578000000    -5.802000000     0.057000000
O     3.748000000     2.795000000    -2.586000000
H     2.877000000     2.417000000    -2.705000000
H     3.815000000     3.462000000    -3.270000000
O    -1.046000000    -3.559000000     6.714000000
H    -1.163000000    -2.641000000     6.471000000
H    -1.680000000    -3.704000000     7.417000000
O     1.965000000    -4.615000000    -3.050000000
H     2.008000000    -4.427000000    -3.987000000
H     1.544000000    -5.473000000    -2.997000000
