158
-3047.53707
C    -1.419000000    -0.077000000     0.509000000
H    -2.407000000     0.025000000     0.951000000
C    -0.708000000     1.088000000     0.198000000
H    -1.185000000     2.065000000     0.201000000
C     0.623000000     1.053000000    -0.224000000
H     1.258000000     1.901000000    -0.460000000
C     1.242000000    -0.202000000    -0.426000000
H     2.214000000    -0.274000000    -0.909000000
C     0.523000000    -1.384000000    -0.214000000
H     0.994000000    -2.346000000    -0.403000000
C    -0.780000000    -1.369000000     0.376000000
C    -1.510000000    -2.616000000     0.778000000
O    -1.140000000    -3.680000000     0.376000000
O    -2.369000000    -2.609000000     1.653000000
O     3.552000000     2.111000000     1.875000000
H     4.363000000     1.609000000     1.796000000
H     3.560000000     2.701000000     1.121000000
O    -1.619000000    -6.979000000     2.288000000
H    -2.402000000    -6.448000000     2.145000000
H    -1.095000000    -6.852000000     1.497000000
O    -0.184000000     2.846000000    -3.451000000
H    -0.800000000     3.080000000    -4.146000000
H    -0.436000000     3.400000000    -2.712000000
O    -0.178000000    -1.223000000     4.581000000
H    -0.274000000    -2.114000000     4.244000000
H    -0.259000000    -0.665000000     3.808000000
O     2.276000000     8.024000000    -0.804000000
H     1.532000000     7.428000000    -0.894000000
H     2.100000000     8.723000000    -1.434000000
O    -4.094000000     3.066000000    -3.037000000
H    -3.717000000     2.223000000    -3.290000000
H    -4.758000000     2.846000000    -2.384000000
O    -1.482000000     4.215000000    -1.471000000
H    -2.352000000     3.855000000    -1.647000000
H    -1.285000000     3.937000000    -0.576000000
O    -2.361000000     7.139000000     1.404000000
H    -1.895000000     7.964000000     1.269000000
H    -1.682000000     6.468000000     1.349000000
O     5.202000000    -1.444000000    -3.723000000
H     4.403000000    -1.769000000    -3.309000000
H     4.899000000    -0.771000000    -4.333000000
O    -6.372000000    -1.971000000     4.850000000
H    -5.980000000    -2.652000000     4.302000000
H    -6.933000000    -2.449000000     5.461000000
O    -1.094000000     4.441000000     1.816000000
H    -1.745000000     3.747000000     1.924000000
H    -0.253000000     3.986000000     1.841000000
O     1.415000000     0.254000000     2.531000000
H     2.039000000     0.891000000     2.184000000
H     0.858000000     0.033000000     1.785000000
O    -4.599000000     1.429000000     5.107000000
H    -4.115000000     1.983000000     5.720000000
H    -3.967000000     0.763000000     4.836000000
O     0.823000000     6.131000000    -4.009000000
H     1.122000000     5.366000000    -4.500000000
H     0.564000000     6.761000000    -4.682000000
O    -4.744000000    -4.068000000     3.093000000
H    -3.990000000    -3.753000000     2.595000000
H    -5.317000000    -4.464000000     2.437000000
O    -0.693000000    -3.799000000     3.688000000
H    -1.032000000    -4.607000000     4.074000000
H    -1.211000000    -3.678000000     2.892000000
O     1.590000000    -2.815000000    -4.675000000
H     1.442000000    -2.033000000    -4.144000000
H     1.716000000    -2.482000000    -5.563000000
O    -4.710000000     1.700000000    -0.104000000
H    -5.495000000     1.211000000     0.141000000
H    -4.085000000     1.030000000    -0.379000000
O    -0.439000000    -3.825000000    -2.196000000
H     0.129000000    -4.593000000    -2.257000000
H    -0.729000000    -3.814000000    -1.284000000
O    -4.777000000    -2.052000000    -0.023000000
H    -3.990000000    -2.167000000     0.508000000
H    -4.489000000    -2.226000000    -0.919000000
O     4.823000000    -3.996000000    -1.955000000
H     5.774000000    -4.096000000    -1.920000000
H     4.614000000    -3.428000000    -1.214000000
O     1.500000000     3.686000000    -6.109000000
H     0.739000000     4.017000000    -6.586000000
H     2.252000000     4.040000000    -6.583000000
O    -3.344000000     3.091000000     1.816000000
H    -4.052000000     3.563000000     2.254000000
H    -3.776000000     2.618000000     1.105000000
O     5.200000000     3.856000000    -4.484000000
H     4.462000000     4.235000000    -4.006000000
H     5.921000000     3.863000000    -3.855000000
O     2.486000000    -3.537000000     2.000000000
H     1.631000000    -3.550000000     1.570000000
H     2.291000000    -3.690000000     2.925000000
O    -3.201000000    -0.765000000     3.380000000
H    -3.011000000    -1.468000000     2.759000000
H    -4.140000000    -0.843000000     3.550000000
O     1.993000000     5.021000000    -1.310000000
H     1.173000000     5.395000000    -1.632000000
H     2.144000000     5.459000000    -0.473000000
O    -3.597000000    -2.960000000    -2.321000000
H    -4.269000000    -2.884000000    -2.998000000
H    -2.828000000    -2.533000000    -2.697000000
O     2.603000000     2.819000000    -2.751000000
H     1.810000000     2.885000000    -3.283000000
H     2.519000000     3.521000000    -2.106000000
O    -3.131000000     0.360000000    -2.301000000
H    -3.641000000    -0.119000000    -2.955000000
H    -2.352000000    -0.178000000    -2.164000000
O    -0.220000000     6.592000000    -1.445000000
H    -0.690000000     5.766000000    -1.564000000
H     0.048000000     6.845000000    -2.328000000
O     5.385000000     0.190000000     0.865000000
H     6.286000000    -0.086000000     1.033000000
H     5.361000000     0.374000000    -0.074000000
O    -6.864000000     0.408000000     0.741000000
H    -6.584000000     0.528000000     1.649000000
H    -7.107000000    -0.516000000     0.686000000
O     4.490000000    -2.458000000     0.375000000
H     3.881000000    -2.951000000     0.926000000
H     4.659000000    -1.653000000     0.865000000
O    -3.325000000    -5.307000000     0.752000000
H    -2.732000000    -4.556000000     0.771000000
H    -3.653000000    -5.331000000    -0.147000000
O    -1.493000000    -6.335000000    -3.668000000
H    -1.769000000    -5.460000000    -3.396000000
H    -1.216000000    -6.762000000    -2.858000000
O     2.222000000     5.831000000     1.673000000
H     1.758000000     6.084000000     2.471000000
H     2.750000000     6.597000000     1.450000000
O     4.911000000     1.390000000    -1.588000000
H     5.325000000     2.252000000    -1.620000000
H     4.078000000     1.507000000    -2.045000000
O    -1.764000000     1.488000000     3.241000000
H    -2.285000000     0.695000000     3.117000000
H    -2.260000000     2.173000000     2.792000000
O     0.093000000    -6.119000000     0.335000000
H    -0.312000000    -5.254000000     0.403000000
H     0.385000000    -6.176000000    -0.574000000
O     1.235000000     3.001000000     3.992000000
H     1.025000000     2.081000000     4.149000000
H     2.053000000     2.980000000     3.497000000
O    -3.999000000    -5.552000000    -2.066000000
H    -3.966000000    -4.600000000    -1.973000000
H    -4.533000000    -5.699000000    -2.846000000
O     1.153000000    -6.200000000    -2.120000000
H     1.148000000    -6.753000000    -2.901000000
H     2.019000000    -6.333000000    -1.737000000
O    -1.517000000    -1.820000000    -3.698000000
H    -1.097000000    -2.456000000    -3.119000000
H    -0.809000000    -1.235000000    -3.966000000
O     2.906000000     1.399000000    -5.174000000
H     2.865000000     1.766000000    -4.291000000
H     2.683000000     2.131000000    -5.749000000
O     2.371000000    -7.314000000     1.739000000
H     2.442000000    -7.983000000     1.058000000
H     1.554000000    -6.857000000     1.541000000
O     0.575000000     0.165000000    -3.802000000
H     0.405000000     1.048000000    -3.475000000
H     1.184000000     0.292000000    -4.529000000
O     5.995000000     3.843000000    -1.818000000
H     6.808000000     3.350000000    -1.703000000
H     6.201000000     4.722000000    -1.500000000
