158
-2997.11163
C    -1.449000000    -0.139000000     0.498000000
H    -2.526000000    -0.261000000     0.574000000
C    -0.797000000     1.062000000     0.203000000
H    -1.334000000     2.005000000     0.143000000
C     0.558000000     1.072000000    -0.112000000
H     1.025000000     2.116000000    -0.349000000
C     1.252000000    -0.118000000    -0.275000000
H     2.286000000    -0.148000000    -0.610000000
C     0.544000000    -1.300000000     0.014000000
H     1.109000000    -2.226000000    -0.055000000
C    -0.755000000    -1.343000000     0.304000000
C    -1.313000000    -2.698000000     0.550000000
O    -0.776000000    -3.675000000     0.095000000
O    -2.458000000    -2.742000000     1.001000000
O     3.223000000     2.734000000     2.296000000
H     3.265000000     2.473000000     1.376000000
H     2.397000000     3.212000000     2.372000000
O    -2.781000000    -7.643000000     2.608000000
H    -2.724000000    -6.891000000     2.018000000
H    -2.807000000    -8.402000000     2.026000000
O    -1.568000000     2.930000000    -3.427000000
H    -2.393000000     3.410000000    -3.502000000
H    -0.902000000     3.610000000    -3.332000000
O    -0.846000000    -2.666000000     5.870000000
H    -1.279000000    -3.030000000     5.098000000
H    -0.016000000    -2.321000000     5.540000000
O    -4.113000000     4.753000000     0.879000000
H    -4.400000000     3.995000000     0.369000000
H    -4.897000000     5.036000000     1.348000000
O    -1.402000000     5.446000000     0.812000000
H    -2.293000000     5.097000000     0.783000000
H    -1.231000000     5.741000000    -0.082000000
O     3.618000000    -3.146000000    -1.715000000
H     3.578000000    -3.271000000    -0.767000000
H     4.263000000    -2.449000000    -1.838000000
O    -3.134000000    -7.156000000    -1.886000000
H    -2.367000000    -7.303000000    -1.333000000
H    -3.815000000    -6.865000000    -1.279000000
O     4.236000000     2.208000000    -0.053000000
H     4.324000000     2.644000000    -0.901000000
H     5.101000000     1.833000000     0.114000000
O     2.074000000    -1.589000000    -3.494000000
H     2.329000000    -0.684000000    -3.671000000
H     2.612000000    -1.848000000    -2.747000000
O     3.755000000    -0.883000000     4.222000000
H     4.668000000    -0.643000000     4.062000000
H     3.286000000    -0.576000000     3.447000000
O    -2.418000000     4.873000000     3.594000000
H    -3.011000000     4.140000000     3.425000000
H    -1.590000000     4.608000000     3.193000000
O     1.054000000    -1.962000000     4.171000000
H     1.995000000    -1.893000000     4.333000000
H     0.810000000    -1.111000000     3.806000000
O    -0.026000000     5.122000000    -3.488000000
H    -0.200000000     5.844000000    -4.092000000
H    -0.039000000     5.526000000    -2.621000000
O     0.391000000    -5.203000000     1.849000000
H    -0.015000000    -4.691000000     1.150000000
H    -0.243000000    -5.175000000     2.566000000
O    -4.975000000     2.586000000    -0.297000000
H    -5.403000000     1.800000000     0.043000000
H    -4.256000000     2.254000000    -0.835000000
O     0.185000000    -4.923000000    -2.164000000
H     1.045000000    -5.343000000    -2.138000000
H    -0.011000000    -4.722000000    -1.249000000
O    -0.689000000     1.836000000    -5.595000000
H    -1.134000000     1.999000000    -4.764000000
H    -0.813000000     2.642000000    -6.096000000
O    -4.771000000    -2.383000000    -0.285000000
H    -4.001000000    -2.620000000     0.231000000
H    -4.726000000    -2.947000000    -1.057000000
O    -5.595000000    -0.115000000    -3.209000000
H    -4.761000000     0.281000000    -2.955000000
H    -5.362000000    -0.995000000    -3.504000000
O    -3.729000000     2.647000000     2.999000000
H    -4.350000000     2.031000000     3.388000000
H    -4.255000000     3.165000000     2.390000000
O    -6.744000000    -1.364000000     3.073000000
H    -7.299000000    -2.097000000     2.806000000
H    -6.000000000    -1.775000000     3.515000000
O    -7.399000000    -2.148000000    -0.523000000
H    -7.645000000    -1.226000000    -0.440000000
H    -6.442000000    -2.140000000    -0.519000000
O     2.402000000    -4.780000000     3.738000000
H     1.944000000    -4.385000000     4.480000000
H     1.715000000    -4.940000000     3.091000000
O    -2.246000000    -3.854000000     3.498000000
H    -2.296000000    -3.453000000     2.630000000
H    -3.071000000    -4.330000000     3.589000000
O     1.784000000     5.583000000    -0.614000000
H     1.183000000     6.271000000    -0.329000000
H     1.829000000     4.981000000     0.130000000
O    -4.402000000    -3.890000000    -2.481000000
H    -4.950000000    -3.504000000    -3.164000000
H    -3.506000000    -3.695000000    -2.755000000
O     2.562000000     3.877000000    -2.615000000
H     2.017000000     4.278000000    -3.292000000
H     2.559000000     4.511000000    -1.898000000
O    -2.961000000     1.275000000    -2.000000000
H    -2.546000000     1.800000000    -2.685000000
H    -2.274000000     0.675000000    -1.709000000
O     4.408000000    -0.614000000     1.179000000
H     5.326000000    -0.532000000     1.438000000
H     4.139000000     0.280000000     0.966000000
O    -6.205000000     0.283000000     0.645000000
H    -7.105000000     0.051000000     0.873000000
H    -5.688000000    -0.479000000     0.908000000
O    -4.952000000    -2.274000000     4.782000000
H    -4.649000000    -3.181000000     4.738000000
H    -5.544000000    -2.255000000     5.534000000
O     3.843000000    -3.268000000     1.027000000
H     3.151000000    -3.511000000     1.642000000
H     3.968000000    -2.329000000     1.165000000
O     5.659000000     5.197000000     1.684000000
H     4.961000000     4.807000000     1.159000000
H     6.094000000     4.451000000     2.097000000
O    -2.713000000    -5.383000000     0.829000000
H    -2.266000000    -4.537000000     0.832000000
H    -3.581000000    -5.194000000     0.473000000
O    -2.058000000    -5.326000000    -4.359000000
H    -1.411000000    -5.125000000    -3.682000000
H    -2.627000000    -4.557000000    -4.382000000
O     1.320000000     4.878000000     1.989000000
H     0.462000000     5.196000000     1.710000000
H     1.508000000     5.367000000     2.791000000
O     5.054000000    -1.010000000    -2.222000000
H     5.657000000    -0.403000000    -1.792000000
H     5.062000000    -0.745000000    -3.142000000
O    -2.919000000    -1.096000000     3.199000000
H    -2.815000000    -1.461000000     2.321000000
H    -3.622000000    -1.614000000     3.592000000
O     2.019000000    -7.281000000     0.545000000
H     1.710000000    -6.491000000     0.988000000
H     2.425000000    -6.960000000    -0.261000000
O     5.290000000     2.523000000     3.744000000
H     4.593000000     2.470000000     3.090000000
H     5.756000000     1.690000000     3.666000000
O     0.542000000     0.490000000     3.176000000
H    -0.341000000     0.760000000     3.429000000
H     0.547000000     0.551000000     2.221000000
O    -5.291000000    -5.800000000    -0.668000000
H    -5.102000000    -5.169000000    -1.362000000
H    -6.080000000    -5.462000000    -0.245000000
O     3.044000000    -5.741000000    -1.474000000
H     2.913000000    -6.243000000    -2.278000000
H     3.210000000    -4.847000000    -1.774000000
O    -1.941000000    -2.819000000    -2.913000000
H    -1.349000000    -3.503000000    -2.599000000
H    -1.438000000    -2.009000000    -2.829000000
O     3.286000000     1.094000000    -4.122000000
H     3.103000000     1.359000000    -3.220000000
H     4.167000000     1.425000000    -4.296000000
O    -1.326000000     2.117000000     4.423000000
H    -1.690000000     1.630000000     5.162000000
H    -2.042000000     2.160000000     3.789000000
O    -0.696000000    -0.425000000    -2.647000000
H    -0.242000000    -0.404000000    -1.804000000
H    -0.280000000     0.269000000    -3.159000000
