158
-2992.13846
C     1.520000000    -0.281000000    -0.196000000
H     2.545000000    -0.642000000    -0.207000000
C     0.763000000    -0.317000000     1.036000000
H     1.214000000    -0.578000000     1.990000000
C    -0.571000000    -0.014000000     1.093000000
H    -0.948000000    -0.097000000     2.131000000
C    -1.231000000     0.313000000    -0.057000000
H    -2.314000000     0.403000000    -0.056000000
C    -0.510000000     0.445000000    -1.300000000
H    -1.060000000     0.780000000    -2.176000000
C     0.854000000     0.157000000    -1.344000000
C     1.494000000     0.199000000    -2.687000000
O     2.605000000    -0.218000000    -2.871000000
O     0.907000000     0.547000000    -3.608000000
O     6.162000000    -0.277000000    -1.240000000
H     5.794000000    -0.822000000    -1.936000000
H     7.074000000    -0.559000000    -1.171000000
O     4.334000000     1.657000000     2.267000000
H     3.587000000     2.201000000     2.018000000
H     4.256000000     1.564000000     3.217000000
O    -7.241000000    -2.696000000     3.330000000
H    -6.286000000    -2.738000000     3.376000000
H    -7.531000000    -2.862000000     4.227000000
O    -2.744000000     1.656000000     4.937000000
H    -3.363000000     1.034000000     4.555000000
H    -2.287000000     2.032000000     4.184000000
O     0.456000000     3.465000000     4.477000000
H     0.277000000     2.825000000     3.788000000
H     0.039000000     4.270000000     4.171000000
O     1.688000000    -0.275000000    -8.210000000
H     1.968000000    -0.488000000    -7.320000000
H     0.735000000    -0.202000000    -8.151000000
O     2.261000000     3.119000000    -4.281000000
H     3.040000000     2.833000000    -3.804000000
H     1.647000000     2.389000000    -4.198000000
O    -6.475000000    -0.926000000    -3.391000000
H    -6.069000000    -0.880000000    -2.525000000
H    -6.401000000    -0.037000000    -3.738000000
O    -5.367000000    -3.763000000    -0.017000000
H    -5.079000000    -4.656000000    -0.208000000
H    -4.676000000    -3.402000000     0.538000000
O    -2.202000000     2.700000000     2.430000000
H    -2.049000000     3.107000000     1.577000000
H    -3.153000000     2.721000000     2.538000000
O     0.218000000    -5.419000000     0.744000000
H     0.947000000    -6.027000000     0.625000000
H     0.227000000    -4.877000000    -0.045000000
O    -1.578000000    -3.327000000    -2.937000000
H    -2.342000000    -2.828000000    -3.226000000
H    -0.966000000    -3.274000000    -3.671000000
O    -4.961000000     0.707000000     0.322000000
H    -4.505000000     1.455000000    -0.063000000
H    -5.821000000     1.049000000     0.564000000
O    -0.592000000     5.510000000     3.346000000
H    -1.305000000     5.229000000     2.772000000
H    -0.067000000     6.098000000     2.803000000
O     7.711000000    -2.094000000     0.056000000
H     7.609000000    -3.044000000     0.119000000
H     6.982000000    -1.741000000     0.565000000
O     4.499000000     0.804000000    -7.597000000
H     3.668000000     0.685000000    -7.136000000
H     4.397000000     0.304000000    -8.407000000
O    -1.151000000     3.513000000     7.577000000
H    -1.190000000     2.729000000     8.126000000
H    -1.286000000     3.189000000     6.687000000
O     6.616000000    -2.691000000    -4.175000000
H     6.027000000    -1.940000000    -4.243000000
H     7.385000000    -2.352000000    -3.717000000
O     3.386000000    -2.790000000    -1.983000000
H     3.407000000    -3.371000000    -2.744000000
H     3.310000000    -1.911000000    -2.355000000
O    -2.638000000     5.356000000    -3.671000000
H    -2.054000000     4.605000000    -3.560000000
H    -3.447000000     4.981000000    -4.019000000
O     1.000000000     4.741000000    -0.661000000
H     0.985000000     5.149000000    -1.527000000
H     0.729000000     5.437000000    -0.063000000
O    -1.765000000     4.318000000     0.366000000
H    -0.824000000     4.479000000     0.291000000
H    -2.168000000     5.169000000     0.192000000
O     2.676000000    -0.220000000    -5.683000000
H     2.110000000     0.009000000    -4.946000000
H     3.360000000    -0.769000000    -5.298000000
O    -0.592000000     2.527000000    -7.578000000
H    -1.540000000     2.403000000    -7.609000000
H    -0.307000000     2.425000000    -8.486000000
O     0.552000000    -2.813000000    -4.875000000
H     0.888000000    -1.947000000    -5.107000000
H     0.109000000    -3.118000000    -5.667000000
O    -4.765000000    -3.767000000     4.012000000
H    -3.879000000    -3.456000000     4.196000000
H    -4.643000000    -4.656000000     3.679000000
O    -2.762000000    -2.087000000     3.711000000
H    -2.305000000    -1.762000000     4.487000000
H    -3.327000000    -1.361000000     3.445000000
O     4.493000000    -3.084000000     0.660000000
H     4.160000000    -3.012000000    -0.235000000
H     3.815000000    -3.571000000     1.129000000
O     7.081000000     1.892000000    -0.124000000
H     7.088000000     2.479000000    -0.880000000
H     6.563000000     1.140000000    -0.410000000
O     5.797000000    -1.442000000     2.308000000
H     5.633000000    -0.548000000     2.007000000
H     5.127000000    -1.968000000     1.871000000
O    -0.387000000     0.345000000    -5.826000000
H    -0.388000000     1.181000000    -6.291000000
H     0.035000000     0.537000000    -4.989000000
O    -4.299000000    -1.407000000    -1.671000000
H    -4.284000000    -2.246000000    -1.210000000
H    -4.342000000    -0.752000000    -0.974000000
O     2.381000000    -4.269000000     2.183000000
H     2.171000000    -4.515000000     3.084000000
H     1.534000000    -4.248000000     1.737000000
O     1.816000000     2.936000000     1.262000000
H     1.676000000     3.502000000     0.503000000
H     1.123000000     2.279000000     1.202000000
O     0.642000000    -4.290000000    -1.776000000
H     1.400000000    -3.822000000    -2.126000000
H    -0.100000000    -3.953000000    -2.279000000
O    -4.833000000     2.862000000     2.240000000
H    -5.326000000     3.131000000     1.465000000
H    -5.301000000     3.262000000     2.973000000
O    -1.957000000     0.543000000     7.883000000
H    -2.130000000     0.589000000     6.943000000
H    -2.825000000     0.538000000     8.286000000
O     2.516000000    -1.017000000     6.839000000
H     2.843000000    -1.539000000     7.572000000
H     3.202000000    -1.083000000     6.174000000
O     0.960000000    -4.151000000     4.783000000
H     1.474000000    -4.335000000     5.569000000
H     0.061000000    -4.067000000     5.099000000
O    -0.512000000     3.515000000    -3.581000000
H     0.433000000     3.620000000    -3.689000000
H    -0.691000000     2.626000000    -3.889000000
O    -3.022000000    -3.064000000     0.839000000
H    -2.592000000    -2.245000000     0.592000000
H    -2.516000000    -3.383000000     1.586000000
O    -3.280000000    -0.016000000    -6.222000000
H    -3.895000000    -0.653000000    -5.858000000
H    -2.462000000    -0.176000000    -5.751000000
O    -4.497000000    -0.058000000     3.553000000
H    -4.773000000     0.412000000     2.766000000
H    -5.315000000    -0.272000000     4.004000000
O     4.120000000     2.099000000    -2.789000000
H     3.694000000     1.300000000    -2.479000000
H     4.843000000     2.237000000    -2.177000000
O    -1.119000000    -1.706000000     5.941000000
H    -0.196000000    -1.763000000     5.694000000
H    -1.369000000    -2.607000000     6.145000000
O     5.233000000    -0.474000000    -4.272000000
H     4.515000000     0.027000000    -3.885000000
H     5.728000000     0.169000000    -4.779000000
O    -3.464000000    -2.010000000    -4.119000000
H    -4.250000000    -2.099000000    -4.658000000
H    -3.781000000    -1.644000000    -3.293000000
O     2.949000000    -4.092000000    -4.487000000
H     2.190000000    -3.566000000    -4.741000000
H     3.025000000    -4.751000000    -5.177000000
