158
-3033.17018
C     1.059000000    -0.661000000    -0.821000000
H     1.898000000    -1.248000000    -1.186000000
C     0.009000000    -1.320000000    -0.207000000
H    -0.031000000    -2.397000000    -0.348000000
C    -1.001000000    -0.603000000     0.391000000
H    -1.851000000    -1.061000000     0.789000000
C    -0.828000000     0.738000000     0.622000000
H    -1.365000000     1.316000000     1.370000000
C     0.240000000     1.408000000     0.100000000
H     0.391000000     2.474000000     0.254000000
C     1.180000000     0.762000000    -0.713000000
C     2.245000000     1.581000000    -1.438000000
O     3.186000000     0.973000000    -1.944000000
O     2.330000000     2.808000000    -1.340000000
O    -0.547000000     4.877000000     0.773000000
H     0.355000000     4.860000000     0.454000000
H    -0.839000000     5.776000000     0.617000000
O    -0.470000000    -3.332000000     2.657000000
H     0.147000000    -2.735000000     2.233000000
H    -1.055000000    -3.612000000     1.953000000
O    -4.267000000    -5.379000000    -0.172000000
H    -3.497000000    -5.895000000    -0.411000000
H    -3.941000000    -4.741000000     0.462000000
O    -6.058000000    -2.015000000     4.534000000
H    -5.444000000    -1.747000000     3.850000000
H    -6.638000000    -2.642000000     4.102000000
O     2.631000000     6.676000000    -4.226000000
H     2.338000000     5.767000000    -4.163000000
H     1.850000000     7.193000000    -4.028000000
O    -0.955000000    -0.086000000     3.830000000
H    -0.971000000     0.784000000     4.229000000
H    -0.171000000    -0.500000000     4.190000000
O     2.425000000     0.048000000    -5.627000000
H     2.924000000     0.688000000    -5.120000000
H     2.401000000    -0.731000000    -5.072000000
O     4.294000000     1.619000000    -4.287000000
H     4.500000000     2.540000000    -4.444000000
H     3.893000000     1.608000000    -3.418000000
O    -3.665000000     3.581000000     1.518000000
H    -3.033000000     3.992000000     2.107000000
H    -3.334000000     3.772000000     0.640000000
O    -3.512000000     1.866000000    -2.214000000
H    -4.410000000     1.794000000    -1.892000000
H    -3.101000000     2.511000000    -1.638000000
O    -5.957000000     1.704000000    -1.019000000
H    -5.801000000     1.756000000    -0.076000000
H    -6.880000000     1.939000000    -1.122000000
O     2.095000000     5.851000000     3.085000000
H     2.891000000     6.161000000     2.655000000
H     2.321000000     4.979000000     3.409000000
O     2.104000000    -4.165000000    -1.398000000
H     1.281000000    -4.254000000    -1.879000000
H     2.673000000    -3.669000000    -1.986000000
O    -3.003000000    -1.774000000    -1.887000000
H    -3.782000000    -2.002000000    -1.379000000
H    -2.948000000    -0.821000000    -1.826000000
O    -2.570000000    -3.817000000     4.588000000
H    -2.046000000    -4.585000000     4.358000000
H    -2.285000000    -3.140000000     3.973000000
O     3.803000000    -0.356000000     0.483000000
H     3.503000000    -0.480000000    -0.417000000
H     4.669000000     0.043000000     0.395000000
O    -0.780000000    -4.894000000     0.346000000
H    -0.971000000    -5.819000000     0.191000000
H    -0.650000000    -4.526000000    -0.529000000
O    -5.923000000    -2.451000000    -0.076000000
H    -6.120000000    -3.101000000    -0.751000000
H    -6.689000000    -1.876000000    -0.067000000
O    -2.727000000     4.379000000    -0.797000000
H    -3.114000000     5.207000000    -1.082000000
H    -1.961000000     4.636000000    -0.285000000
O    -0.785000000    -3.733000000    -2.304000000
H    -1.427000000    -3.028000000    -2.217000000
H    -0.678000000    -3.845000000    -3.249000000
O    -0.959000000     6.520000000    -2.221000000
H    -0.504000000     7.356000000    -2.318000000
H    -0.362000000     5.982000000    -1.699000000
O     0.511000000    -4.537000000     4.920000000
H    -0.051000000    -4.130000000     4.260000000
H     0.784000000    -3.812000000     5.482000000
O    -0.859000000    -0.156000000    -4.217000000
H    -1.268000000    -0.423000000    -3.394000000
H    -0.789000000     0.796000000    -4.152000000
O     1.854000000     4.051000000    -4.069000000
H     2.008000000     3.569000000    -3.256000000
H     0.985000000     3.767000000    -4.354000000
O     3.851000000    -1.583000000    -2.776000000
H     2.986000000    -1.639000000    -3.182000000
H     4.089000000    -0.658000000    -2.847000000
O     0.471000000     2.653000000     4.494000000
H     0.880000000     1.970000000     5.026000000
H     0.439000000     3.418000000     5.070000000
O     2.936000000     3.284000000     3.304000000
H     2.136000000     2.846000000     3.595000000
H     3.602000000     3.009000000     3.933000000
O     7.870000000    -0.345000000    -1.809000000
H     7.129000000     0.243000000    -1.663000000
H     7.471000000    -1.207000000    -1.926000000
O    -4.977000000    -5.849000000     3.668000000
H    -5.215000000    -6.617000000     3.149000000
H    -4.935000000    -5.134000000     3.034000000
O     4.867000000    -2.012000000     2.306000000
H     4.317000000    -1.499000000     1.714000000
H     4.250000000    -2.420000000     2.914000000
O     6.332000000    -2.634000000    -2.090000000
H     5.415000000    -2.428000000    -2.274000000
H     6.614000000    -3.160000000    -2.838000000
O    -6.086000000     3.884000000     2.286000000
H    -6.560000000     3.069000000     2.124000000
H    -5.207000000     3.723000000     1.943000000
O     6.960000000     3.062000000    -3.023000000
H     6.173000000     3.526000000    -3.308000000
H     6.835000000     2.933000000    -2.083000000
O     5.615000000     0.873000000    -1.050000000
H     4.708000000     1.046000000    -1.303000000
H     5.898000000     1.675000000    -0.611000000
O     1.845000000    -0.090000000     3.045000000
H     1.051000000    -0.137000000     2.513000000
H     2.553000000    -0.305000000     2.438000000
O    -3.916000000     1.578000000     3.229000000
H    -4.785000000     1.941000000     3.397000000
H    -3.488000000     2.228000000     2.673000000
O    -1.442000000     3.964000000     3.159000000
H    -1.008000000     4.330000000     2.389000000
H    -0.777000000     3.409000000     3.567000000
O    -3.439000000    -1.231000000     3.244000000
H    -2.576000000    -1.032000000     3.607000000
H    -3.847000000    -0.375000000     3.114000000
O     1.765000000     5.295000000    -0.700000000
H     2.596000000     5.714000000    -0.477000000
H     2.016000000     4.459000000    -1.093000000
O     2.125000000    -4.972000000     1.874000000
H     1.385000000    -4.754000000     1.309000000
H     1.732000000    -5.131000000     2.733000000
O    -0.898000000     3.070000000    -4.318000000
H    -1.731000000     3.410000000    -4.644000000
H    -0.523000000     2.598000000    -5.062000000
O    -4.658000000    -3.584000000     2.300000000
H    -4.096000000    -2.862000000     2.582000000
H    -5.067000000    -3.268000000     1.494000000
O     4.442000000    -5.241000000    -0.336000000
H     3.572000000    -4.933000000    -0.588000000
H     4.871000000    -4.470000000     0.035000000
O     5.601000000     5.490000000     0.084000000
H     5.867000000     5.898000000     0.909000000
H     5.118000000     4.707000000     0.349000000
O     3.959000000     3.319000000     0.805000000
H     3.542000000     3.080000000     1.632000000
H     3.364000000     2.989000000     0.132000000
O     4.730000000     4.516000000    -3.851000000
H     4.993000000     5.299000000    -3.367000000
H     3.787000000     4.618000000    -3.978000000
O    -2.581000000     2.370000000     5.666000000
H    -3.247000000     2.006000000     5.082000000
H    -2.088000000     2.979000000     5.116000000
O     1.321000000    -1.881000000    -3.972000000
H     0.683000000    -1.182000000    -3.825000000
H     0.872000000    -2.496000000    -4.552000000
