158
-3051.32564
C     0.666000000    -1.198000000     0.403000000
H     0.993000000    -2.178000000     0.740000000
C    -0.684000000    -1.037000000     0.279000000
H    -1.300000000    -1.914000000     0.459000000
C    -1.200000000     0.124000000    -0.169000000
H    -2.277000000     0.257000000    -0.086000000
C    -0.378000000     1.170000000    -0.582000000
H    -0.853000000     2.094000000    -0.900000000
C     1.065000000     1.005000000    -0.519000000
H     1.688000000     1.857000000    -0.780000000
C     1.569000000    -0.177000000    -0.001000000
C     3.029000000    -0.363000000     0.202000000
O     3.362000000    -1.522000000     0.150000000
O     3.830000000     0.541000000     0.111000000
O     2.807000000     6.126000000    -0.765000000
H     2.540000000     6.544000000    -1.583000000
H     3.661000000     5.740000000    -0.962000000
O     3.763000000    -4.865000000    -2.516000000
H     4.310000000    -5.580000000    -2.841000000
H     3.116000000    -5.293000000    -1.955000000
O    -0.085000000     3.516000000     2.905000000
H    -0.243000000     2.572000000     2.876000000
H    -0.749000000     3.852000000     3.506000000
O    -0.457000000    -3.395000000     3.439000000
H    -0.654000000    -3.589000000     2.523000000
H    -1.278000000    -3.561000000     3.902000000
O     5.688000000    -3.507000000    -4.004000000
H     6.335000000    -4.189000000    -3.824000000
H     4.937000000    -3.739000000    -3.457000000
O    -5.379000000    -2.003000000     1.064000000
H    -5.006000000    -2.874000000     1.204000000
H    -6.276000000    -2.071000000     1.391000000
O     5.576000000     2.007000000     1.205000000
H     5.676000000     1.677000000     2.098000000
H     4.820000000     1.534000000     0.857000000
O     8.149000000     0.466000000    -1.707000000
H     7.685000000     0.065000000    -0.972000000
H     8.637000000     1.191000000    -1.316000000
O    -3.459000000     1.536000000     2.613000000
H    -3.399000000     2.225000000     1.951000000
H    -3.713000000     1.996000000     3.414000000
O    -1.124000000     5.212000000     0.364000000
H    -1.948000000     4.733000000     0.454000000
H    -0.702000000     5.125000000     1.218000000
O     3.856000000     1.553000000    -2.222000000
H     3.844000000     1.055000000    -1.404000000
H     3.791000000     2.467000000    -1.948000000
O     1.662000000    -4.227000000     5.251000000
H     2.384000000    -4.614000000     4.757000000
H     0.952000000    -4.147000000     4.614000000
O     0.821000000    -1.116000000     4.112000000
H     0.312000000    -0.420000000     3.696000000
H     0.295000000    -1.905000000     3.986000000
O     2.642000000    -2.550000000    -2.244000000
H     2.800000000    -2.430000000    -1.307000000
H     3.094000000    -3.366000000    -2.460000000
O    -3.322000000     3.796000000     1.064000000
H    -4.068000000     4.245000000     1.463000000
H    -3.650000000     3.491000000     0.218000000
O    -6.656000000    -1.125000000    -2.099000000
H    -5.708000000    -1.002000000    -2.131000000
H    -7.007000000    -0.432000000    -2.659000000
O     1.332000000    -5.447000000     1.681000000
H     1.819000000    -5.911000000     1.000000000
H     1.816000000    -4.630000000     1.807000000
O    -8.125000000     2.529000000     0.934000000
H    -7.315000000     2.030000000     1.041000000
H    -7.840000000     3.378000000     0.596000000
O     6.719000000    -3.673000000    -0.267000000
H     6.452000000    -2.777000000    -0.472000000
H     7.672000000    -3.667000000    -0.362000000
O    -3.365000000     1.087000000    -2.724000000
H    -3.571000000     0.867000000    -3.633000000
H    -3.269000000     0.239000000    -2.289000000
O    -2.645000000     4.341000000    -4.342000000
H    -2.359000000     5.254000000    -4.372000000
H    -1.971000000     3.863000000    -4.825000000
O    -0.664000000     3.017000000    -5.697000000
H    -0.651000000     2.060000000    -5.674000000
H     0.202000000     3.276000000    -5.382000000
O    -3.902000000    -1.051000000     3.591000000
H    -3.670000000    -0.232000000     3.153000000
H    -4.118000000    -1.651000000     2.878000000
O    -0.654000000    -2.724000000    -2.143000000
H    -0.855000000    -1.864000000    -2.512000000
H     0.164000000    -2.593000000    -1.663000000
O    -3.377000000     3.822000000    -1.877000000
H    -3.329000000     2.874000000    -1.996000000
H    -3.007000000     4.184000000    -2.683000000
O     3.959000000    -0.624000000     4.372000000
H     4.016000000     0.112000000     3.763000000
H     3.086000000    -0.989000000     4.226000000
O     3.504000000    -5.179000000     3.618000000
H     3.647000000    -4.842000000     2.734000000
H     4.384000000    -5.319000000     3.968000000
O    -4.009000000    -1.697000000    -1.471000000
H    -3.977000000    -2.546000000    -1.912000000
H    -4.224000000    -1.907000000    -0.563000000
O     1.670000000     3.906000000    -4.803000000
H     1.537000000     4.111000000    -3.878000000
H     2.620000000     3.914000000    -4.917000000
O    -4.359000000     2.677000000     4.971000000
H    -3.971000000     2.482000000     5.824000000
H    -5.217000000     3.047000000     5.178000000
O    -1.402000000    -4.784000000     1.345000000
H    -1.388000000    -4.926000000     0.399000000
H    -0.526000000    -5.035000000     1.638000000
O    -0.353000000    -0.216000000    -3.306000000
H     0.590000000    -0.318000000    -3.177000000
H    -0.542000000     0.670000000    -2.999000000
O    -0.844000000     0.923000000     2.710000000
H    -1.750000000     1.031000000     3.000000000
H    -0.914000000     0.449000000     1.881000000
O     5.007000000     3.957000000    -0.703000000
H     4.313000000     4.165000000    -0.077000000
H     5.579000000     3.349000000    -0.234000000
O     2.082000000     3.784000000     1.210000000
H     2.155000000     4.724000000     1.379000000
H     1.256000000     3.530000000     1.623000000
O    -1.131000000    -5.249000000    -1.451000000
H    -0.603000000    -5.772000000    -2.054000000
H    -0.916000000    -4.342000000    -1.669000000
O     0.997000000     4.172000000    -2.002000000
H     0.158000000     4.227000000    -1.545000000
H     1.649000000     4.371000000    -1.330000000
O     4.352000000    -3.433000000     1.500000000
H     4.665000000    -3.985000000     0.783000000
H     4.106000000    -2.609000000     1.079000000
O    -5.867000000     0.994000000     0.970000000
H    -5.171000000     1.186000000     1.599000000
H    -5.586000000     0.186000000     0.541000000
O    -5.650000000     5.245000000    -2.442000000
H    -4.900000000     4.691000000    -2.227000000
H    -6.273000000     4.653000000    -2.865000000
O    -2.601000000    -2.987000000     5.015000000
H    -2.895000000    -3.051000000     5.923000000
H    -3.081000000    -2.240000000     4.659000000
O     6.114000000    -2.071000000     3.197000000
H     5.329000000    -1.676000000     3.576000000
H     5.783000000    -2.658000000     2.518000000
O     6.261000000     0.982000000    -3.597000000
H     6.855000000     0.516000000    -3.009000000
H     5.543000000     1.271000000    -3.033000000
O     2.459000000    -0.409000000    -3.750000000
H     2.614000000    -1.131000000    -3.140000000
H     2.905000000     0.339000000    -3.354000000
O     3.033000000     1.833000000     3.020000000
H     2.911000000     2.145000000     2.123000000
H     3.802000000     2.308000000     3.336000000
O    -4.068000000    -4.167000000     1.273000000
H    -4.175000000    -4.599000000     0.426000000
H    -3.201000000    -4.440000000     1.573000000
O     6.342000000    -0.817000000     0.104000000
H     6.600000000    -0.515000000     0.975000000
H     5.400000000    -0.657000000     0.064000000
O     8.789000000     1.927000000     0.599000000
H     8.417000000     1.267000000     1.183000000
H     9.443000000     2.378000000     1.133000000
