158
-3066.67372
C     0.615000000    -1.039000000     0.887000000
H     1.061000000    -1.822000000     1.495000000
C    -0.636000000    -1.207000000     0.191000000
H    -1.347000000    -1.994000000     0.429000000
C    -1.041000000    -0.161000000    -0.647000000
H    -1.860000000    -0.319000000    -1.219000000
C    -0.274000000     0.975000000    -0.750000000
H    -0.631000000     1.766000000    -1.404000000
C     0.949000000     1.116000000    -0.122000000
H     1.551000000     2.000000000    -0.312000000
C     1.406000000     0.113000000     0.724000000
C     2.587000000     0.415000000     1.549000000
O     2.602000000     0.034000000     2.744000000
O     3.574000000     0.947000000     1.033000000
O    -1.411000000    -5.505000000     1.423000000
H    -1.222000000    -5.210000000     2.314000000
H    -2.357000000    -5.652000000     1.415000000
O     3.502000000    -1.737000000     5.951000000
H     3.280000000    -0.807000000     6.000000000
H     4.013000000    -1.819000000     5.146000000
O     5.887000000     3.495000000    -2.190000000
H     5.386000000     2.682000000    -2.127000000
H     5.896000000     3.841000000    -1.298000000
O     0.995000000    -3.231000000     5.655000000
H     1.869000000    -2.905000000     5.870000000
H     0.510000000    -2.453000000     5.383000000
O    -6.645000000    -1.789000000    -1.479000000
H    -7.351000000    -2.435000000    -1.497000000
H    -5.935000000    -2.196000000    -1.976000000
O     6.212000000     1.236000000     1.603000000
H     6.216000000     2.172000000     1.402000000
H     5.332000000     0.944000000     1.363000000
O    -0.955000000     1.946000000     2.626000000
H    -0.498000000     2.782000000     2.537000000
H    -0.763000000     1.480000000     1.812000000
O    -5.613000000    -0.536000000     0.889000000
H    -6.054000000    -0.896000000     0.120000000
H    -5.144000000     0.230000000     0.560000000
O     5.550000000    -2.797000000     1.547000000
H     6.212000000    -2.316000000     1.050000000
H     5.791000000    -3.717000000     1.440000000
O     3.423000000     1.819000000    -1.826000000
H     3.344000000     1.283000000    -1.037000000
H     3.361000000     2.720000000    -1.511000000
O    -5.071000000     0.741000000    -5.097000000
H    -5.195000000     1.604000000    -4.703000000
H    -5.635000000     0.161000000    -4.586000000
O     4.039000000     0.802000000     4.767000000
H     3.987000000     1.737000000     4.570000000
H     3.711000000     0.372000000     3.977000000
O     1.237000000    -6.175000000    -1.090000000
H     1.061000000    -5.722000000    -0.266000000
H     2.190000000    -6.154000000    -1.177000000
O    -2.340000000    -2.788000000    -6.346000000
H    -1.979000000    -3.501000000    -6.873000000
H    -2.036000000    -2.971000000    -5.456000000
O    -5.220000000     3.084000000    -2.755000000
H    -4.512000000     2.569000000    -2.368000000
H    -5.198000000     3.915000000    -2.280000000
O    -2.643000000    -3.293000000     4.040000000
H    -2.175000000    -2.474000000     3.875000000
H    -3.331000000    -3.314000000     3.374000000
O    -4.088000000     1.832000000     0.183000000
H    -3.427000000     2.422000000     0.544000000
H    -3.811000000     1.686000000    -0.722000000
O    -1.411000000    -4.556000000    -1.525000000
H    -1.198000000    -4.970000000    -0.688000000
H    -0.776000000    -4.922000000    -2.141000000
O     7.241000000    -0.927000000     0.229000000
H     6.933000000    -0.070000000     0.524000000
H     8.180000000    -0.922000000     0.416000000
O    -1.340000000     3.967000000    -2.283000000
H    -1.312000000     3.104000000    -2.696000000
H    -1.282000000     4.583000000    -3.014000000
O     1.464000000     1.027000000    -4.692000000
H     1.460000000     0.694000000    -5.589000000
H     1.970000000     1.838000000    -4.739000000
O     5.948000000     4.286000000     4.155000000
H     5.819000000     5.164000000     3.795000000
H     5.424000000     3.717000000     3.592000000
O    -1.890000000    -0.636000000     3.864000000
H    -0.961000000    -0.407000000     3.889000000
H    -2.343000000     0.179000000     4.078000000
O    -2.767000000     0.080000000    -6.479000000
H    -2.784000000    -0.875000000    -6.429000000
H    -3.607000000     0.355000000    -6.111000000
O    -3.474000000    -3.274000000    -0.247000000
H    -2.659000000    -3.647000000    -0.584000000
H    -4.056000000    -3.246000000    -1.007000000
O    -1.197000000    -2.455000000    -3.922000000
H    -0.795000000    -3.219000000    -3.508000000
H    -0.672000000    -1.715000000    -3.618000000
O    -2.685000000     4.480000000     0.075000000
H    -2.043000000     4.204000000    -0.579000000
H    -3.428000000     4.798000000    -0.438000000
O     6.968000000     0.837000000     4.306000000
H     6.145000000     0.506000000     4.665000000
H     6.802000000     0.925000000     3.368000000
O     3.063000000    -4.993000000     2.076000000
H     3.142000000    -4.159000000     2.539000000
H     3.963000000    -5.223000000     1.843000000
O     5.231000000     0.990000000     7.390000000
H     5.589000000     1.878000000     7.378000000
H     5.010000000     0.809000000     6.476000000
O    -3.496000000     0.948000000    -2.526000000
H    -2.796000000     1.052000000    -3.170000000
H    -3.683000000     0.010000000    -2.525000000
O    -1.257000000     0.869000000    -4.193000000
H    -0.320000000     0.898000000    -4.383000000
H    -1.638000000     0.400000000    -4.936000000
O     2.214000000     4.712000000    -3.181000000
H     1.635000000     3.959000000    -3.061000000
H     2.169000000     5.184000000    -2.349000000
O    -4.447000000    -3.074000000    -3.139000000
H    -3.551000000    -2.773000000    -3.288000000
H    -4.759000000    -3.338000000    -4.004000000
O     0.942000000    -0.928000000    -2.994000000
H     0.554000000    -0.571000000    -2.195000000
H     1.180000000    -0.157000000    -3.509000000
O     0.853000000    -0.432000000     4.836000000
H     1.473000000    -0.224000000     4.137000000
H     1.384000000    -0.435000000     5.633000000
O    -1.049000000     3.510000000    -5.619000000
H    -0.263000000     3.283000000    -6.116000000
H    -1.578000000     2.712000000    -5.632000000
O     1.400000000     2.949000000     4.388000000
H     0.829000000     2.209000000     4.180000000
H     1.290000000     3.079000000     5.329000000
O     3.494000000     4.347000000    -0.392000000
H     3.587000000     5.204000000    -0.807000000
H     2.764000000     4.453000000     0.217000000
O     5.977000000     4.034000000     1.256000000
H     5.037000000     4.111000000     1.095000000
H     6.353000000     4.823000000     0.865000000
O    -4.164000000    -5.810000000     1.179000000
H    -4.282000000    -6.579000000     0.623000000
H    -4.478000000    -5.079000000     0.647000000
O     1.011000000     5.350000000     0.515000000
H     0.415000000     5.165000000     1.241000000
H     0.556000000     6.012000000    -0.005000000
O     3.677000000    -2.403000000     3.379000000
H     4.210000000    -2.393000000     2.584000000
H     3.081000000    -1.660000000     3.277000000
O    -0.635000000    -4.982000000     4.082000000
H    -1.380000000    -4.382000000     4.118000000
H    -0.059000000    -4.691000000     4.789000000
O     3.738000000     2.805000000    -4.336000000
H     3.666000000     2.252000000    -3.558000000
H     3.339000000     3.635000000    -4.077000000
O     3.549000000     3.015000000     2.855000000
H     2.737000000     3.240000000     3.309000000
H     3.281000000     2.391000000     2.180000000
O    -4.977000000    -3.175000000     1.973000000
H    -5.448000000    -2.359000000     1.808000000
H    -4.270000000    -3.179000000     1.329000000
O     4.498000000    -1.625000000    -0.639000000
H     4.154000000    -0.978000000    -0.023000000
H     5.043000000    -2.201000000    -0.102000000
