158
-3002.80707
C     1.165000000    -0.401000000     0.621000000
H     1.963000000    -0.911000000     1.154000000
C     0.110000000    -1.151000000     0.385000000
H     0.128000000    -2.186000000     0.716000000
C    -0.994000000    -0.698000000    -0.219000000
H    -1.894000000    -1.191000000    -0.528000000
C    -0.888000000     0.618000000    -0.774000000
H    -1.727000000     0.961000000    -1.373000000
C     0.155000000     1.494000000    -0.447000000
H     0.050000000     2.540000000    -0.722000000
C     1.245000000     0.956000000     0.264000000
C     2.425000000     1.780000000     0.630000000
O     3.363000000     1.234000000     1.160000000
O     2.454000000     2.951000000     0.334000000
O    -0.990000000     6.753000000     1.467000000
H    -1.025000000     6.967000000     0.535000000
H    -0.359000000     6.035000000     1.525000000
O    -1.251000000    -6.137000000     0.461000000
H    -1.417000000    -5.844000000     1.358000000
H    -0.931000000    -7.034000000     0.558000000
O     3.376000000    -3.481000000     2.080000000
H     4.075000000    -4.126000000     1.977000000
H     3.661000000    -2.732000000     1.557000000
O     2.276000000    -1.841000000     3.899000000
H     2.988000000    -2.316000000     3.471000000
H     2.616000000    -0.955000000     4.019000000
O    -6.086000000    -1.902000000    -2.518000000
H    -7.001000000    -1.956000000    -2.793000000
H    -5.605000000    -2.390000000    -3.187000000
O     5.619000000     1.529000000     0.062000000
H     5.293000000     2.003000000    -0.703000000
H     4.837000000     1.349000000     0.584000000
O     7.842000000    -0.164000000    -1.049000000
H     7.379000000     0.456000000    -0.485000000
H     7.389000000    -0.105000000    -1.891000000
O    -2.161000000     0.679000000     1.869000000
H    -1.883000000     0.396000000     0.998000000
H    -1.346000000     0.897000000     2.321000000
O    -5.681000000    -0.766000000     0.206000000
H    -5.406000000    -1.063000000    -0.661000000
H    -6.638000000    -0.788000000     0.174000000
O     4.142000000     3.426000000    -1.666000000
H     3.690000000     3.159000000    -0.866000000
H     3.763000000     4.278000000    -1.882000000
O    -3.660000000    -6.139000000     2.291000000
H    -4.146000000    -5.332000000     2.121000000
H    -3.832000000    -6.334000000     3.212000000
O    -0.766000000    -5.699000000     3.326000000
H    -1.437000000    -6.333000000     3.579000000
H    -1.247000000    -4.882000000     3.193000000
O     3.967000000     0.731000000     3.545000000
H     4.090000000     1.610000000     3.904000000
H     3.700000000     0.879000000     2.638000000
O     6.537000000     3.026000000     3.404000000
H     5.866000000     3.390000000     2.827000000
H     6.144000000     3.055000000     4.277000000
O    -5.358000000    -2.004000000     3.505000000
H    -4.579000000    -1.630000000     3.917000000
H    -6.090000000    -1.534000000     3.905000000
O    -0.422000000    -5.066000000    -1.925000000
H    -0.647000000    -5.470000000    -1.087000000
H     0.534000000    -5.025000000    -1.922000000
O    -6.646000000    -4.487000000    -1.415000000
H    -6.179000000    -3.695000000    -1.681000000
H    -5.955000000    -5.126000000    -1.240000000
O    -2.033000000    -3.395000000     3.460000000
H    -1.227000000    -2.975000000     3.762000000
H    -2.732000000    -2.815000000     3.760000000
O    -3.795000000     4.516000000     0.201000000
H    -4.650000000     4.142000000    -0.009000000
H    -3.984000000     5.418000000     0.459000000
O    -0.410000000    -6.355000000    -4.210000000
H    -0.378000000    -5.809000000    -3.424000000
H    -1.344000000    -6.489000000    -4.371000000
O     5.260000000    -2.501000000    -1.671000000
H     5.605000000    -3.217000000    -1.138000000
H     5.063000000    -1.808000000    -1.041000000
O    -1.819000000     2.588000000    -4.798000000
H    -1.736000000     1.864000000    -5.420000000
H    -2.421000000     3.200000000    -5.221000000
O     0.920000000     0.254000000    -4.880000000
H     0.331000000     0.005000000    -5.592000000
H     0.888000000     1.211000000    -4.866000000
O    -3.124000000     4.004000000     2.819000000
H    -3.319000000     3.075000000     2.947000000
H    -3.017000000     4.097000000     1.872000000
O     4.384000000     4.285000000     1.931000000
H     3.775000000     4.002000000     1.249000000
H     4.554000000     5.206000000     1.734000000
O    -0.680000000    -1.686000000     5.023000000
H     0.225000000    -1.676000000     4.710000000
H    -0.608000000    -1.553000000     5.968000000
O    -1.506000000    -2.738000000    -3.865000000
H    -0.739000000    -2.991000000    -3.352000000
H    -2.181000000    -3.368000000    -3.613000000
O    -1.826000000     4.335000000    -1.492000000
H    -2.339000000     4.217000000    -2.291000000
H    -2.469000000     4.589000000    -0.830000000
O     0.694000000     3.033000000    -4.437000000
H    -0.252000000     3.091000000    -4.576000000
H     0.893000000     3.756000000    -3.843000000
O     7.518000000     1.095000000     1.903000000
H     7.394000000     1.783000000     2.557000000
H     6.773000000     1.192000000     1.310000000
O     2.040000000    -3.850000000    -2.817000000
H     1.836000000    -2.923000000    -2.698000000
H     2.222000000    -3.937000000    -3.753000000
O     6.238000000    -0.384000000     4.981000000
H     5.810000000    -0.347000000     4.125000000
H     5.804000000     0.297000000     5.495000000
O    -5.434000000     1.960000000    -3.236000000
H    -4.969000000     2.796000000    -3.261000000
H    -4.742000000     1.302000000    -3.170000000
O    -3.109000000     0.118000000    -3.949000000
H    -2.336000000     0.610000000    -3.671000000
H    -2.826000000    -0.796000000    -3.943000000
O     1.191000000    -1.432000000    -2.618000000
H     0.682000000    -1.060000000    -1.898000000
H     1.006000000    -0.860000000    -3.362000000
O    -6.071000000    -3.822000000     1.599000000
H    -6.297000000    -3.353000000     0.796000000
H    -5.792000000    -3.137000000     2.206000000
O     0.154000000     1.892000000     3.730000000
H     0.522000000     1.772000000     4.606000000
H    -0.775000000     2.063000000     3.882000000
O     3.250000000     6.024000000    -1.435000000
H     3.165000000     6.977000000    -1.410000000
H     2.411000000     5.718000000    -1.779000000
O     6.569000000     4.041000000    -2.651000000
H     5.772000000     3.651000000    -2.293000000
H     7.194000000     4.017000000    -1.927000000
O     0.989000000     5.961000000     3.673000000
H     1.187000000     5.369000000     2.948000000
H     0.137000000     5.667000000     3.996000000
O    -3.392000000    -0.793000000     4.637000000
H    -3.560000000     0.103000000     4.928000000
H    -2.446000000    -0.824000000     4.493000000
O    -4.888000000     1.190000000     1.822000000
H    -5.258000000     0.363000000     1.513000000
H    -3.941000000     1.061000000     1.775000000
O     0.766000000     5.036000000    -2.448000000
H    -0.070000000     4.774000000    -2.062000000
H     0.563000000     5.833000000    -2.939000000
O     4.736000000    -1.236000000     0.865000000
H     5.639000000    -0.969000000     1.034000000
H     4.221000000    -0.441000000     1.002000000
O     1.863000000    -5.521000000     2.854000000
H     0.940000000    -5.644000000     3.075000000
H     1.899000000    -4.656000000     2.445000000
O     0.491000000     3.988000000     1.788000000
H     0.368000000     3.155000000     2.243000000
H     1.008000000     3.764000000     1.014000000
O    -3.862000000    -5.761000000    -1.133000000
H    -3.268000000    -5.435000000    -0.457000000
H    -3.327000000    -5.793000000    -1.926000000
O     3.448000000    -0.232000000    -3.793000000
H     2.905000000    -0.854000000    -3.310000000
H     2.824000000     0.389000000    -4.170000000
