158
-3043.70731
C     0.155000000    -1.300000000     0.631000000
H     0.391000000    -2.270000000     1.062000000
C    -0.750000000    -1.009000000    -0.408000000
H    -1.367000000    -1.746000000    -0.917000000
C    -0.715000000     0.261000000    -0.985000000
H    -1.212000000     0.455000000    -1.880000000
C     0.040000000     1.299000000    -0.399000000
H     0.156000000     2.264000000    -0.886000000
C     0.735000000     1.027000000     0.795000000
H     1.227000000     1.854000000     1.301000000
C     0.865000000    -0.307000000     1.296000000
C     1.783000000    -0.603000000     2.454000000
O     1.789000000    -1.755000000     2.914000000
O     2.334000000     0.305000000     3.022000000
O     5.073000000    -2.898000000     5.106000000
H     4.293000000    -3.005000000     5.649000000
H     5.792000000    -2.819000000     5.733000000
O    -5.310000000     0.874000000    -0.580000000
H    -5.374000000    -0.073000000    -0.462000000
H    -4.562000000     1.133000000    -0.042000000
O     1.959000000     1.251000000     6.608000000
H     1.888000000     2.014000000     6.035000000
H     2.335000000     0.568000000     6.053000000
O    -0.397000000     0.137000000     5.406000000
H    -0.008000000     0.245000000     6.274000000
H    -0.365000000    -0.806000000     5.244000000
O     2.286000000     5.904000000    -3.939000000
H     2.274000000     5.196000000    -3.295000000
H     2.299000000     5.457000000    -4.785000000
O     4.488000000     1.805000000     2.173000000
H     3.646000000     1.358000000     2.256000000
H     5.068000000     1.338000000     2.774000000
O    -3.126000000     0.787000000     1.216000000
H    -3.079000000     0.139000000     1.919000000
H    -2.442000000     0.524000000     0.601000000
O    -2.474000000    -3.177000000     4.536000000
H    -2.954000000    -4.001000000     4.446000000
H    -1.711000000    -3.282000000     3.968000000
O     4.645000000     0.061000000     4.444000000
H     3.748000000     0.150000000     4.123000000
H     4.722000000    -0.862000000     4.688000000
O     3.034000000    -0.906000000    -1.018000000
H     2.127000000    -0.954000000    -0.717000000
H     3.448000000    -1.691000000    -0.658000000
O    -3.427000000    -5.740000000    -3.238000000
H    -2.635000000    -5.306000000    -2.922000000
H    -3.108000000    -6.420000000    -3.831000000
O    -0.851000000     4.243000000    -3.429000000
H    -1.722000000     4.095000000    -3.061000000
H    -0.832000000     3.707000000    -4.222000000
O    -0.324000000    -2.551000000     6.364000000
H    -0.412000000    -2.687000000     7.307000000
H    -0.896000000    -3.211000000     5.972000000
O     3.251000000    -3.947000000     2.887000000
H     3.931000000    -3.766000000     3.536000000
H     2.737000000    -3.140000000     2.848000000
O    -3.226000000     2.874000000    -1.871000000
H    -2.872000000     2.200000000    -2.452000000
H    -4.078000000     3.092000000    -2.248000000
O    -1.792000000    -4.229000000    -5.753000000
H    -2.337000000    -4.858000000    -6.226000000
H    -2.412000000    -3.726000000    -5.224000000
O    -2.193000000     6.355000000     0.780000000
H    -1.924000000     6.825000000     1.570000000
H    -1.582000000     5.620000000     0.719000000
O    -0.728000000    -1.805000000    -6.600000000
H    -1.401000000    -1.603000000    -7.251000000
H    -1.009000000    -2.634000000    -6.215000000
O     1.962000000    -5.301000000    -1.472000000
H     2.112000000    -6.169000000    -1.847000000
H     2.676000000    -5.184000000    -0.846000000
O    -3.742000000    -2.842000000    -4.413000000
H    -4.213000000    -3.671000000    -4.495000000
H    -4.309000000    -2.297000000    -3.867000000
O    -5.914000000     2.817000000    -3.253000000
H    -5.713000000     3.329000000    -4.037000000
H    -5.888000000     1.907000000    -3.548000000
O     2.846000000    -1.989000000     8.236000000
H     2.979000000    -2.873000000     7.894000000
H     2.434000000    -1.513000000     7.515000000
O     2.598000000     3.915000000     2.459000000
H     3.417000000     3.421000000     2.419000000
H     2.330000000     3.861000000     3.377000000
O     1.727000000     1.651000000    -6.622000000
H     1.178000000     1.931000000    -5.890000000
H     2.557000000     2.108000000    -6.488000000
O     3.420000000     6.443000000     1.393000000
H     3.416000000     6.473000000     0.436000000
H     3.177000000     5.542000000     1.605000000
O     4.485000000    -3.262000000    -0.311000000
H     5.172000000    -3.245000000     0.355000000
H     3.792000000    -3.799000000     0.074000000
O     0.082000000     0.241000000    -4.943000000
H    -0.004000000    -0.485000000    -5.561000000
H     0.676000000    -0.089000000    -4.268000000
O     2.283000000    -2.046000000     5.572000000
H     1.385000000    -2.203000000     5.864000000
H     2.195000000    -1.782000000     4.656000000
O    -1.618000000     2.332000000    -5.588000000
H    -1.289000000     2.570000000    -6.455000000
H    -1.020000000     1.649000000    -5.284000000
O    -3.584000000     0.521000000    -4.436000000
H    -2.894000000    -0.139000000    -4.503000000
H    -3.231000000     1.284000000    -4.893000000
O     1.446000000     4.403000000    -1.523000000
H     0.620000000     4.324000000    -2.001000000
H     1.185000000     4.583000000    -0.621000000
O    -2.737000000     3.493000000     1.189000000
H    -3.089000000     3.551000000     0.301000000
H    -2.727000000     2.556000000     1.382000000
O     3.514000000    -6.576000000     1.917000000
H     3.309000000    -5.758000000     2.369000000
H     4.336000000    -6.868000000     2.312000000
O    -6.117000000     0.247000000    -3.828000000
H    -6.346000000    -0.493000000    -3.265000000
H    -5.179000000     0.144000000    -3.990000000
O    -2.007000000    -5.514000000    -0.120000000
H    -2.640000000    -4.801000000    -0.037000000
H    -1.393000000    -5.212000000    -0.791000000
O     3.586000000     1.052000000    -2.573000000
H     3.211000000     0.251000000    -2.208000000
H     4.285000000     0.748000000    -3.152000000
O     6.227000000     1.791000000     5.478000000
H     5.634000000     1.142000000     5.100000000
H     5.998000000     1.812000000     6.407000000
O     3.838000000     3.744000000    -2.534000000
H     3.110000000     3.995000000    -1.966000000
H     3.804000000     2.788000000    -2.559000000
O     1.815000000    -1.912000000    -3.731000000
H     2.551000000    -2.179000000    -4.283000000
H     2.212000000    -1.712000000    -2.884000000
O     6.319000000    -2.817000000     1.523000000
H     6.275000000    -1.998000000     2.015000000
H     7.160000000    -3.202000000     1.772000000
O    -0.050000000    -3.834000000     3.112000000
H     0.423000000    -3.003000000     3.067000000
H     0.638000000    -4.498000000     3.163000000
O     0.473000000     4.687000000     1.170000000
H    -0.174000000     3.985000000     1.091000000
H     1.152000000     4.324000000     1.737000000
O     0.860000000     2.191000000     3.929000000
H     0.046000000     1.768000000     4.202000000
H     1.422000000     1.470000000     3.649000000
O    -5.995000000    -2.480000000    -2.583000000
H    -6.551000000    -3.069000000    -3.093000000
H    -6.357000000    -2.514000000    -1.698000000
O    -0.822000000    -4.721000000    -2.696000000
H     0.042000000    -4.845000000    -2.303000000
H    -0.657000000    -4.189000000    -3.475000000
O     0.583000000     4.112000000     5.880000000
H     0.649000000     3.729000000     5.005000000
H     0.470000000     5.050000000     5.722000000
O     5.821000000    -0.074000000    -0.274000000
H     4.879000000    -0.061000000    -0.107000000
H     6.126000000     0.790000000     0.002000000
O    -3.791000000    -3.378000000    -0.565000000
H    -4.179000000    -3.452000000    -1.437000000
H    -4.372000000    -2.781000000    -0.095000000
