158
-3022.82435
C     0.901000000    -1.146000000     0.438000000
H     1.449000000    -2.078000000     0.550000000
C    -0.406000000    -1.273000000    -0.052000000
H    -0.806000000    -2.284000000    -0.071000000
C    -1.178000000    -0.133000000    -0.389000000
H    -2.096000000    -0.304000000    -0.791000000
C    -0.548000000     1.144000000    -0.337000000
H    -1.112000000     2.015000000    -0.660000000
C     0.744000000     1.236000000     0.175000000
H     1.150000000     2.220000000     0.396000000
C     1.492000000     0.136000000     0.522000000
C     2.895000000     0.268000000     1.014000000
O     3.654000000    -0.653000000     1.148000000
O     3.340000000     1.392000000     1.294000000
O     1.882000000     6.220000000    -0.573000000
H     1.462000000     6.095000000     0.278000000
H     2.490000000     5.484000000    -0.650000000
O    -0.470000000    -4.398000000     1.577000000
H     0.101000000    -4.576000000     0.830000000
H     0.063000000    -3.857000000     2.161000000
O     2.555000000     2.729000000     3.633000000
H     2.695000000     2.168000000     2.870000000
H     2.401000000     2.119000000     4.354000000
O    -6.528000000    -2.973000000    -1.759000000
H    -6.101000000    -3.773000000    -2.067000000
H    -6.576000000    -2.414000000    -2.534000000
O     8.343000000     1.154000000     1.841000000
H     7.509000000     1.230000000     2.304000000
H     8.640000000     0.264000000     2.029000000
O     5.168000000     3.152000000     0.267000000
H     5.454000000     2.523000000    -0.395000000
H     4.498000000     2.685000000     0.766000000
O    -1.384000000     4.046000000     2.112000000
H    -1.572000000     3.141000000     2.362000000
H    -1.705000000     4.117000000     1.212000000
O    -5.473000000     0.958000000    -0.594000000
H    -5.379000000     1.760000000    -0.081000000
H    -5.113000000     1.179000000    -1.453000000
O     4.811000000     1.149000000    -1.462000000
H     3.960000000     1.529000000    -1.680000000
H     5.349000000     1.306000000    -2.238000000
O    -2.815000000    -4.799000000     0.201000000
H    -1.936000000    -4.514000000     0.452000000
H    -3.181000000    -4.055000000    -0.277000000
O    -1.901000000     4.539000000    -4.375000000
H    -1.969000000     3.632000000    -4.674000000
H    -2.750000000     4.926000000    -4.587000000
O     6.903000000    -2.006000000     5.206000000
H     6.659000000    -2.525000000     5.972000000
H     6.068000000    -1.744000000     4.818000000
O     0.623000000    -0.364000000     4.470000000
H     0.399000000    -1.091000000     5.051000000
H     1.309000000     0.114000000     4.937000000
O    -3.477000000     0.022000000     2.369000000
H    -3.796000000    -0.353000000     1.548000000
H    -3.022000000    -0.701000000     2.802000000
O     4.411000000    -3.471000000    -2.211000000
H     4.225000000    -3.711000000    -1.303000000
H     4.687000000    -4.289000000    -2.624000000
O    -1.741000000     4.455000000    -0.519000000
H    -2.436000000     5.039000000    -0.822000000
H    -1.107000000     4.444000000    -1.236000000
O    -4.899000000    -3.857000000    -3.870000000
H    -4.400000000    -4.380000000    -4.497000000
H    -5.797000000    -3.878000000    -4.202000000
O    -4.664000000     2.436000000    -3.443000000
H    -4.393000000     3.349000000    -3.344000000
H    -3.989000000     2.044000000    -3.997000000
O     1.151000000     4.942000000     2.252000000
H     0.267000000     4.575000000     2.231000000
H     1.670000000     4.288000000     2.720000000
O     1.362000000    -4.611000000    -0.416000000
H     2.229000000    -4.369000000    -0.092000000
H     1.530000000    -5.300000000    -1.059000000
O    -6.938000000     0.328000000    -3.822000000
H    -7.708000000     0.595000000    -3.320000000
H    -6.226000000     0.863000000    -3.471000000
O    -0.451000000    -1.772000000    -5.010000000
H    -1.321000000    -1.437000000    -5.227000000
H    -0.115000000    -2.121000000    -5.835000000
O    -8.222000000     0.533000000    -1.292000000
H    -8.810000000     1.289000000    -1.298000000
H    -7.564000000     0.746000000    -0.630000000
O    -4.352000000    -1.346000000     0.018000000
H    -4.073000000    -1.877000000    -0.728000000
H    -4.712000000    -0.551000000    -0.375000000
O     2.636000000    -2.224000000    -3.745000000
H     2.431000000    -1.465000000    -3.199000000
H     3.204000000    -2.766000000    -3.198000000
O     0.331000000     4.338000000    -2.669000000
H    -0.259000000     4.564000000    -3.388000000
H     0.482000000     5.166000000    -2.214000000
O     5.171000000    -1.393000000     3.064000000
H     4.508000000    -1.318000000     2.378000000
H     5.341000000    -0.490000000     3.333000000
O    -2.619000000    -0.185000000    -6.446000000
H    -2.060000000     0.221000000    -7.109000000
H    -3.504000000     0.106000000    -6.668000000
O    -2.308000000     1.945000000    -4.734000000
H    -1.436000000     1.680000000    -4.440000000
H    -2.468000000     1.415000000    -5.515000000
O    -0.697000000    -3.224000000    -2.524000000
H    -0.864000000    -2.950000000    -3.426000000
H     0.228000000    -3.025000000    -2.381000000
O     0.946000000    -0.052000000    -2.841000000
H     0.274000000    -0.301000000    -3.476000000
H     0.497000000    -0.075000000    -1.996000000
O    -1.395000000     1.506000000     3.337000000
H    -0.755000000     0.797000000     3.402000000
H    -2.165000000     1.099000000     2.941000000
O    -6.238000000    -2.783000000     0.873000000
H    -6.370000000    -2.882000000    -0.070000000
H    -5.356000000    -2.421000000     0.955000000
O     4.115000000     6.054000000     0.882000000
H     4.641000000     6.557000000     1.503000000
H     4.564000000     5.212000000     0.814000000
O    -3.052000000    -6.359000000    -1.988000000
H    -3.999000000    -6.451000000    -2.089000000
H    -2.941000000    -5.965000000    -1.122000000
O     1.227000000    -6.754000000     2.144000000
H     0.661000000    -6.067000000     1.791000000
H     2.087000000    -6.341000000     2.219000000
O     2.236000000     2.375000000    -2.977000000
H     1.495000000     2.962000000    -2.827000000
H     1.846000000     1.502000000    -3.018000000
O     3.750000000    -3.593000000     0.609000000
H     3.681000000    -4.141000000     1.390000000
H     3.990000000    -2.729000000     0.944000000
O     2.756000000    -4.374000000     5.292000000
H     3.371000000    -5.057000000     5.025000000
H     2.161000000    -4.283000000     4.548000000
O    -5.190000000     3.368000000     0.618000000
H    -5.950000000     3.191000000     1.172000000
H    -4.922000000     4.256000000     0.855000000
O     1.164000000    -2.954000000     3.141000000
H     1.365000000    -2.244000000     2.530000000
H     0.686000000    -2.528000000     3.853000000
O     7.049000000    -1.946000000     1.170000000
H     6.831000000    -1.568000000     0.318000000
H     6.340000000    -1.663000000     1.746000000
O     5.787000000     1.283000000     2.656000000
H     4.969000000     1.292000000     2.159000000
H     5.888000000     2.183000000     2.967000000
O    -5.198000000     1.575000000     3.723000000
H    -5.016000000     1.268000000     2.835000000
H    -4.532000000     1.150000000     4.264000000
O    -3.263000000    -3.197000000    -1.780000000
H    -3.761000000    -3.196000000    -2.598000000
H    -2.353000000    -3.082000000    -2.054000000
O    -3.025000000    -2.239000000     3.768000000
H    -2.304000000    -2.837000000     3.571000000
H    -3.538000000    -2.696000000     4.435000000
O     6.226000000    -1.185000000    -1.279000000
H     5.605000000    -1.868000000    -1.530000000
H     5.730000000    -0.370000000    -1.359000000
O    -0.754000000    -7.054000000    -0.737000000
H    -1.353000000    -6.681000000    -0.091000000
H    -1.029000000    -6.668000000    -1.569000000
