158
-3045.16550
C     1.049000000    -0.105000000     1.052000000
H     1.788000000    -0.394000000     1.795000000
C     0.897000000    -0.930000000    -0.074000000
H     1.600000000    -1.726000000    -0.309000000
C    -0.092000000    -0.656000000    -1.015000000
H    -0.215000000    -1.340000000    -1.833000000
C    -0.953000000     0.373000000    -0.819000000
H    -1.735000000     0.518000000    -1.559000000
C    -0.812000000     1.159000000     0.307000000
H    -1.546000000     1.944000000     0.467000000
C     0.172000000     0.945000000     1.299000000
C     0.250000000     1.753000000     2.548000000
O     1.356000000     1.834000000     3.035000000
O    -0.743000000     2.401000000     2.896000000
O     2.492000000     1.725000000     7.622000000
H     2.781000000     1.857000000     6.719000000
H     3.009000000     2.348000000     8.133000000
O    -2.866000000    -2.496000000    -0.522000000
H    -3.123000000    -1.712000000    -1.008000000
H    -2.314000000    -2.985000000    -1.131000000
O     0.803000000     5.623000000     6.083000000
H     1.020000000     4.806000000     5.633000000
H    -0.131000000     5.548000000     6.278000000
O    -3.238000000     2.325000000    -3.824000000
H    -3.909000000     1.665000000    -3.647000000
H    -3.171000000     2.823000000    -3.009000000
O    -2.420000000     2.614000000     4.936000000
H    -1.731000000     2.443000000     4.294000000
H    -3.234000000     2.417000000     4.473000000
O     4.112000000    -3.573000000    -0.114000000
H     4.095000000    -4.282000000     0.530000000
H     4.039000000    -4.016000000    -0.959000000
O    -2.949000000     3.555000000    -1.222000000
H    -2.024000000     3.660000000    -1.445000000
H    -2.977000000     3.641000000    -0.269000000
O     0.663000000     4.857000000     1.489000000
H     0.383000000     4.370000000     2.264000000
H     1.481000000     5.277000000     1.752000000
O    -2.767000000    -0.958000000     1.737000000
H    -2.894000000    -1.565000000     1.008000000
H    -2.008000000    -0.432000000     1.481000000
O    -5.732000000    -0.816000000    -0.303000000
H    -5.906000000    -1.549000000    -0.892000000
H    -5.866000000    -1.176000000     0.574000000
O     5.757000000     1.779000000     3.966000000
H     5.093000000     1.131000000     4.201000000
H     6.417000000     1.282000000     3.483000000
O     2.174000000     3.179000000     5.299000000
H     1.627000000     2.793000000     4.614000000
H     2.960000000     3.476000000     4.839000000
O     3.565000000    -1.847000000     2.460000000
H     3.893000000    -2.541000000     3.031000000
H     3.597000000    -1.057000000     3.001000000
O    -0.364000000     4.180000000    -0.993000000
H    -0.069000000     4.522000000    -0.149000000
H     0.379000000     3.669000000    -1.317000000
O     0.016000000    -3.723000000    -5.834000000
H     0.759000000    -4.046000000    -6.343000000
H    -0.607000000    -3.411000000    -6.491000000
O    -4.042000000    -0.935000000     4.356000000
H    -3.319000000    -0.650000000     3.797000000
H    -4.795000000    -0.983000000     3.767000000
O    -1.423000000     1.783000000    -5.748000000
H    -2.118000000     1.969000000    -5.117000000
H    -1.770000000     1.068000000    -6.282000000
O     4.281000000     4.721000000     4.375000000
H     5.228000000     4.752000000     4.507000000
H     4.171000000     4.744000000     3.424000000
O     3.464000000     2.417000000     1.394000000
H     4.143000000     1.875000000     1.795000000
H     2.678000000     2.236000000     1.910000000
O    -4.625000000     1.499000000     1.088000000
H    -4.714000000     0.686000000     0.591000000
H    -3.681000000     1.646000000     1.138000000
O    -2.105000000    -0.231000000    -7.222000000
H    -1.590000000    -0.895000000    -7.680000000
H    -2.973000000    -0.281000000    -7.623000000
O    -1.629000000    -1.567000000    -4.772000000
H    -2.131000000    -1.449000000    -5.578000000
H    -0.721000000    -1.653000000    -5.065000000
O    -1.318000000    -3.531000000    -2.676000000
H    -0.473000000    -3.967000000    -2.570000000
H    -1.252000000    -3.082000000    -3.519000000
O     3.610000000     0.094000000     4.324000000
H     2.906000000     0.630000000     3.961000000
H     3.164000000    -0.535000000     4.891000000
O     0.708000000     1.023000000    -3.818000000
H     0.328000000     0.329000000    -3.280000000
H    -0.039000000     1.407000000    -4.277000000
O     1.152000000    -0.517000000     6.084000000
H     0.235000000    -0.618000000     6.341000000
H     1.447000000     0.264000000     6.553000000
O     3.375000000     4.930000000     1.809000000
H     3.309000000     4.056000000     1.424000000
H     4.247000000     5.237000000     1.558000000
O    -1.813000000     2.471000000     7.507000000
H    -2.528000000     2.999000000     7.862000000
H    -1.926000000     2.520000000     6.558000000
O     1.897000000    -5.442000000    -4.207000000
H     2.148000000    -5.581000000    -5.120000000
H     0.942000000    -5.388000000    -4.226000000
O     1.733000000     3.341000000    -2.595000000
H     1.853000000     4.009000000    -3.270000000
H     1.258000000     2.637000000    -3.036000000
O    -3.295000000     6.018000000    -2.431000000
H    -2.964000000     5.370000000    -1.809000000
H    -3.900000000     6.555000000    -1.919000000
O    -1.455000000    -0.559000000     6.562000000
H    -2.165000000    -1.153000000     6.807000000
H    -1.879000000     0.294000000     6.467000000
O     0.015000000    -5.463000000    -0.743000000
H     0.833000000    -5.715000000    -1.172000000
H    -0.288000000    -6.264000000    -0.316000000
O    -4.416000000    -4.380000000    -4.993000000
H    -4.023000000    -3.544000000    -4.744000000
H    -5.065000000    -4.553000000    -4.310000000
O    -5.365000000     5.082000000     1.562000000
H    -4.822000000     4.339000000     1.826000000
H    -6.056000000     5.122000000     2.224000000
O     3.476000000    -0.292000000    -2.959000000
H     2.963000000     0.492000000    -2.763000000
H     3.698000000    -0.654000000    -2.101000000
O     4.827000000    -0.580000000    -0.262000000
H     4.152000000    -0.094000000     0.210000000
H     4.701000000    -1.490000000     0.008000000
O     1.378000000     1.995000000    -6.525000000
H     1.766000000     1.531000000    -5.783000000
H     0.440000000     2.009000000    -6.334000000
O     4.183000000    -4.634000000    -2.907000000
H     3.341000000    -4.993000000    -3.189000000
H     4.324000000    -3.879000000    -3.479000000
O    -2.785000000     3.922000000     1.844000000
H    -2.321000000     3.338000000     2.445000000
H    -2.455000000     4.795000000     2.057000000
O     4.665000000    -1.979000000    -4.485000000
H     4.076000000    -1.428000000    -3.971000000
H     5.492000000    -1.497000000    -4.500000000
O    -5.457000000     1.119000000    -2.545000000
H    -5.440000000     0.403000000    -1.910000000
H    -6.067000000     1.756000000    -2.171000000
O    -0.711000000    -3.733000000     1.187000000
H    -1.404000000    -3.072000000     1.196000000
H    -0.827000000    -4.190000000     0.354000000
O     3.910000000     3.402000000    -0.982000000
H     3.137000000     3.120000000    -1.472000000
H     3.726000000     3.147000000    -0.078000000
O    -1.651000000     5.833000000     4.784000000
H    -2.166000000     6.374000000     5.382000000
H    -2.036000000     4.960000000     4.858000000
O     1.867000000    -4.351000000     2.145000000
H     1.119000000    -4.010000000     1.654000000
H     2.474000000    -3.613000000     2.200000000
O    -1.994000000     6.380000000     2.275000000
H    -1.590000000     6.324000000     3.141000000
H    -1.430000000     6.978000000     1.785000000
O    -3.412000000    -1.189000000    -2.822000000
H    -2.628000000    -1.321000000    -3.354000000
H    -4.103000000    -0.999000000    -3.456000000
