158
-3060.96669
C     1.162000000     0.196000000     0.931000000
H     2.104000000     0.226000000     1.473000000
C     1.098000000    -0.697000000    -0.187000000
H     1.873000000    -1.425000000    -0.412000000
C    -0.032000000    -0.839000000    -0.914000000
H    -0.094000000    -1.571000000    -1.653000000
C    -1.126000000    -0.040000000    -0.619000000
H    -2.024000000    -0.112000000    -1.227000000
C    -1.025000000     0.886000000     0.401000000
H    -1.858000000     1.568000000     0.552000000
C     0.144000000     1.051000000     1.188000000
C     0.173000000     2.136000000     2.220000000
O     1.138000000     2.221000000     2.977000000
O    -0.702000000     3.012000000     2.241000000
O    -0.851000000    -3.746000000     1.220000000
H    -1.632000000    -3.589000000     0.691000000
H    -0.700000000    -4.689000000     1.150000000
O    -1.447000000     5.429000000     6.636000000
H    -2.355000000     5.692000000     6.485000000
H    -1.062000000     5.386000000     5.761000000
O    -5.863000000     2.696000000    -1.990000000
H    -6.472000000     2.953000000    -1.298000000
H    -5.042000000     3.130000000    -1.759000000
O     5.025000000    -0.574000000     4.778000000
H     5.591000000    -1.346000000     4.798000000
H     4.155000000    -0.920000000     4.578000000
O    -2.133000000     2.293000000     4.286000000
H    -1.452000000     2.452000000     3.632000000
H    -2.326000000     3.159000000     4.645000000
O     4.019000000    -4.104000000     1.122000000
H     3.275000000    -3.891000000     1.685000000
H     3.624000000    -4.490000000     0.340000000
O    -3.241000000     3.641000000    -1.386000000
H    -3.113000000     3.608000000    -2.334000000
H    -2.513000000     4.173000000    -1.065000000
O    -0.310000000     4.864000000     4.153000000
H     0.363000000     5.389000000     3.719000000
H    -0.474000000     4.139000000     3.549000000
O    -4.895000000    -0.116000000     1.051000000
H    -5.091000000    -0.210000000     0.119000000
H    -3.962000000    -0.316000000     1.121000000
O    -3.352000000    -4.100000000    -0.031000000
H    -3.988000000    -3.687000000    -0.615000000
H    -3.847000000    -4.293000000     0.765000000
O     3.604000000     1.261000000     3.343000000
H     2.687000000     1.496000000     3.482000000
H     3.933000000     1.050000000     4.217000000
O     2.686000000     3.509000000     5.183000000
H     2.095000000     3.619000000     4.437000000
H     2.147000000     3.715000000     5.947000000
O    -1.262000000    -3.737000000    -5.374000000
H    -1.066000000    -3.969000000    -6.282000000
H    -0.408000000    -3.713000000    -4.943000000
O    -1.172000000     4.672000000     0.200000000
H    -0.712000000     5.422000000     0.578000000
H    -1.120000000     3.995000000     0.875000000
O     0.714000000     0.750000000    -4.266000000
H     1.090000000     0.738000000    -3.386000000
H     1.282000000     0.173000000    -4.777000000
O    -4.500000000    -1.833000000     3.364000000
H    -4.761000000    -1.224000000     2.673000000
H    -3.549000000    -1.744000000     3.415000000
O    -3.173000000     2.930000000    -4.218000000
H    -3.613000000     3.002000000    -5.065000000
H    -3.346000000     2.032000000    -3.934000000
O     4.311000000     3.866000000     2.355000000
H     4.587000000     4.092000000     3.243000000
H     3.966000000     2.976000000     2.430000000
O     1.777000000    -1.399000000    -5.919000000
H     1.775000000    -0.882000000    -6.725000000
H     2.655000000    -1.277000000    -5.558000000
O    -2.972000000    -1.568000000    -5.813000000
H    -2.553000000    -1.352000000    -6.646000000
H    -2.552000000    -2.384000000    -5.538000000
O    -3.064000000     0.303000000    -3.980000000
H    -3.210000000    -0.365000000    -4.650000000
H    -2.111000000     0.367000000    -3.910000000
O    -2.651000000    -7.006000000    -1.830000000
H    -2.157000000    -7.043000000    -1.011000000
H    -2.990000000    -6.112000000    -1.866000000
O     1.244000000     0.652000000     5.213000000
H     1.032000000     1.305000000     4.546000000
H     1.521000000     1.167000000     5.971000000
O     3.514000000    -2.944000000     4.552000000
H     4.312000000    -3.308000000     4.170000000
H     2.884000000    -2.940000000     3.831000000
O     1.019000000     2.717000000    -1.396000000
H     0.624000000     3.379000000    -0.829000000
H     0.471000000     1.941000000    -1.276000000
O     0.293000000     2.846000000     7.045000000
H    -0.310000000     3.565000000     6.856000000
H    -0.211000000     2.250000000     7.599000000
O     0.640000000     6.538000000     0.991000000
H     0.381000000     7.351000000     1.426000000
H     0.826000000     6.797000000     0.089000000
O     1.756000000    -2.971000000     2.014000000
H     1.392000000    -2.292000000     2.582000000
H     1.004000000    -3.299000000     1.521000000
O     0.202000000    -5.286000000    -2.673000000
H     0.505000000    -4.573000000    -3.235000000
H    -0.741000000    -5.143000000    -2.592000000
O     5.502000000     2.797000000     5.904000000
H     4.621000000     2.785000000     5.531000000
H     5.856000000     3.651000000     5.654000000
O     6.671000000    -2.854000000     1.050000000
H     6.956000000    -3.394000000     0.313000000
H     5.718000000    -2.938000000     1.054000000
O    -4.003000000     0.693000000     5.569000000
H    -3.465000000     1.374000000     5.165000000
H    -4.014000000    -0.016000000     4.926000000
O    -4.811000000    -2.629000000    -1.770000000
H    -5.746000000    -2.743000000    -1.938000000
H    -4.718000000    -1.700000000    -1.559000000
O     4.448000000    -0.186000000    -1.469000000
H     5.166000000     0.267000000    -1.026000000
H     3.762000000    -0.254000000    -0.805000000
O     5.202000000     0.387000000     1.290000000
H     5.304000000     1.307000000     1.045000000
H     4.873000000     0.414000000     2.189000000
O    -0.165000000     3.269000000    -4.257000000
H     0.179000000     2.413000000    -4.511000000
H    -1.115000000     3.158000000    -4.265000000
O     2.626000000    -5.532000000    -1.531000000
H     2.802000000    -6.473000000    -1.512000000
H     1.715000000    -5.465000000    -1.816000000
O    -3.876000000     3.983000000     1.927000000
H    -3.304000000     4.603000000     1.474000000
H    -3.433000000     3.139000000     1.836000000
O     4.805000000    -4.450000000    -3.136000000
H     5.094000000    -5.174000000    -3.691000000
H     3.898000000    -4.662000000    -2.918000000
O     3.878000000    -0.135000000    -4.303000000
H     3.744000000    -0.478000000    -3.420000000
H     4.629000000    -0.624000000    -4.639000000
O    -1.774000000    -1.553000000     2.966000000
H    -1.548000000    -2.143000000     2.246000000
H    -1.053000000    -1.648000000     3.588000000
O     1.483000000    -3.904000000    -5.011000000
H     1.367000000    -3.072000000    -5.469000000
H     2.160000000    -4.361000000    -5.511000000
O    -3.946000000    -4.793000000    -3.208000000
H    -4.064000000    -3.951000000    -2.769000000
H    -4.142000000    -4.614000000    -4.128000000
O     3.595000000     5.914000000     0.811000000
H     2.645000000     6.026000000     0.797000000
H     3.730000000     5.053000000     1.205000000
O     0.438000000    -2.026000000     4.288000000
H     0.614000000    -1.147000000     4.624000000
H     0.175000000    -2.528000000     5.059000000
O    -2.637000000     6.453000000     3.694000000
H    -3.332000000     5.941000000     4.108000000
H    -1.892000000     5.855000000     3.649000000
O     6.127000000    -2.225000000    -2.672000000
H     5.562000000    -2.991000000    -2.783000000
H     5.668000000    -1.680000000    -2.033000000
O    -4.919000000     0.156000000    -1.571000000
H    -4.342000000     0.207000000    -2.333000000
H    -5.408000000     0.979000000    -1.585000000
