158
-3034.93011
C     1.349000000     0.261000000     0.634000000
H     2.330000000     0.320000000     1.098000000
C     1.137000000    -0.661000000    -0.435000000
H     1.948000000    -1.178000000    -0.942000000
C    -0.180000000    -0.731000000    -1.001000000
H    -0.315000000    -1.364000000    -1.863000000
C    -1.183000000     0.161000000    -0.565000000
H    -2.161000000     0.224000000    -1.036000000
C    -0.913000000     0.895000000     0.571000000
H    -1.705000000     1.508000000     0.994000000
C     0.318000000     1.004000000     1.164000000
C     0.564000000     1.804000000     2.391000000
O     1.417000000     1.410000000     3.190000000
O    -0.225000000     2.651000000     2.776000000
O     0.102000000    -3.094000000     0.987000000
H    -0.020000000    -2.793000000     0.086000000
H     0.573000000    -3.922000000     0.902000000
O    -0.303000000     6.299000000     4.288000000
H    -0.030000000     5.971000000     3.431000000
H    -0.705000000     7.148000000     4.104000000
O    -5.139000000     2.774000000    -2.637000000
H    -5.939000000     3.259000000    -2.436000000
H    -4.483000000     3.136000000    -2.040000000
O     2.872000000    -1.023000000     6.121000000
H     2.269000000    -0.293000000     6.267000000
H     2.326000000    -1.805000000     6.207000000
O    -2.847000000     2.632000000     3.253000000
H    -1.907000000     2.708000000     3.091000000
H    -2.998000000     3.159000000     4.038000000
O     4.595000000    -2.633000000    -0.334000000
H     3.977000000    -2.687000000     0.395000000
H     4.290000000    -3.294000000    -0.955000000
O    -3.228000000     3.604000000    -0.593000000
H    -2.499000000     3.932000000    -0.066000000
H    -3.723000000     3.044000000     0.005000000
O    -1.425000000     5.020000000     0.918000000
H    -1.388000000     5.972000000     0.822000000
H    -0.667000000     4.805000000     1.461000000
O    -4.988000000    -0.154000000     0.816000000
H    -4.894000000    -0.315000000    -0.123000000
H    -4.891000000     0.794000000     0.907000000
O    -2.484000000    -3.708000000    -0.801000000
H    -2.300000000    -4.476000000    -0.260000000
H    -3.136000000    -3.215000000    -0.303000000
O     3.351000000    -0.301000000     3.326000000
H     2.595000000     0.270000000     3.194000000
H     3.308000000    -0.545000000     4.251000000
O     1.061000000     4.819000000     1.926000000
H     0.885000000     3.966000000     2.325000000
H     1.963000000     4.755000000     1.612000000
O    -0.610000000     4.786000000    -2.152000000
H    -1.360000000     4.334000000    -2.537000000
H    -0.995000000     5.496000000    -1.639000000
O     0.083000000    -0.286000000    -5.317000000
H     0.864000000    -0.801000000    -5.516000000
H    -0.602000000    -0.666000000    -5.868000000
O     3.278000000     3.343000000     3.639000000
H     3.417000000     3.817000000     2.819000000
H     2.594000000     2.705000000     3.434000000
O     2.517000000    -1.367000000    -5.578000000
H     3.024000000    -0.992000000    -6.298000000
H     3.157000000    -1.868000000    -5.071000000
O    -2.018000000    -1.418000000    -6.547000000
H    -1.743000000    -0.909000000    -7.309000000
H    -1.953000000    -2.330000000    -6.832000000
O    -2.745000000    -0.046000000    -3.814000000
H    -3.100000000     0.165000000    -4.678000000
H    -1.848000000    -0.331000000    -3.986000000
O    -1.721000000    -6.164000000     0.323000000
H    -2.100000000    -7.036000000     0.211000000
H    -1.001000000    -6.133000000    -0.307000000
O     1.521000000     1.214000000     5.741000000
H     1.400000000     1.314000000     4.796000000
H     1.113000000     1.994000000     6.118000000
O    -3.490000000    -6.493000000    -3.372000000
H    -4.113000000    -6.160000000    -4.018000000
H    -2.711000000    -5.950000000    -3.489000000
O     1.908000000     3.083000000    -1.734000000
H     1.202000000     3.712000000    -1.880000000
H     1.508000000     2.230000000    -1.904000000
O     0.246000000     3.606000000     5.739000000
H     0.014000000     4.141000000     4.979000000
H    -0.518000000     3.663000000     6.313000000
O     2.820000000    -2.203000000     1.729000000
H     2.914000000    -1.589000000     2.457000000
H     2.204000000    -1.777000000     1.133000000
O     0.708000000    -4.826000000    -3.638000000
H     0.733000000    -4.488000000    -4.533000000
H    -0.077000000    -4.435000000    -3.256000000
O     3.851000000     3.874000000     6.120000000
H     3.171000000     4.539000000     6.236000000
H     4.010000000     3.855000000     5.177000000
O    -3.969000000     0.193000000     4.526000000
H    -3.020000000     0.081000000     4.478000000
H    -4.162000000     0.876000000     3.884000000
O     1.948000000    -5.240000000     0.288000000
H     2.879000000    -5.458000000     0.227000000
H     1.536000000    -5.754000000    -0.407000000
O    -4.888000000    -2.641000000    -3.440000000
H    -5.689000000    -2.838000000    -2.955000000
H    -4.594000000    -1.801000000    -3.086000000
O     4.653000000    -0.866000000    -2.269000000
H     4.706000000    -1.432000000    -1.499000000
H     4.755000000    -1.461000000    -3.011000000
O     5.964000000    -0.765000000     2.371000000
H     6.207000000    -1.582000000     2.806000000
H     5.029000000    -0.666000000     2.551000000
O     1.612000000     2.138000000    -5.109000000
H     2.372000000     1.591000000    -5.307000000
H     0.865000000     1.543000000    -5.179000000
O     3.089000000    -4.425000000    -2.400000000
H     3.197000000    -5.273000000    -1.969000000
H     2.187000000    -4.431000000    -2.718000000
O    -4.769000000     2.435000000     1.396000000
H    -5.095000000     3.331000000     1.483000000
H    -4.073000000     2.369000000     2.050000000
O     4.227000000    -3.052000000    -4.337000000
H     3.990000000    -3.523000000    -5.136000000
H     4.022000000    -3.662000000    -3.629000000
O     0.234000000    -6.742000000    -1.912000000
H     0.670000000    -7.513000000    -2.275000000
H     0.450000000    -6.036000000    -2.520000000
O     5.533000000     1.494000000    -2.957000000
H     5.067000000     0.671000000    -2.809000000
H     6.405000000     1.344000000    -2.592000000
O    -2.061000000    -1.581000000     2.163000000
H    -1.435000000    -2.269000000     1.938000000
H    -1.907000000    -0.894000000     1.514000000
O     1.249000000    -3.688000000    -6.116000000
H     1.557000000    -2.832000000    -5.818000000
H     2.049000000    -4.188000000    -6.275000000
O    -1.861000000     0.913000000     7.218000000
H    -1.088000000     1.080000000     7.758000000
H    -1.508000000     0.706000000     6.353000000
O     4.571000000     1.393000000     5.321000000
H     4.173000000     2.205000000     5.636000000
H     3.843000000     0.904000000     4.937000000
O    -1.921000000    -3.679000000    -3.770000000
H    -2.450000000    -3.525000000    -2.987000000
H    -2.422000000    -3.279000000    -4.481000000
O    -4.402000000    -2.719000000    -6.032000000
H    -4.576000000    -2.538000000    -5.108000000
H    -3.727000000    -2.087000000    -6.277000000
O     3.300000000     3.812000000     0.822000000
H     4.142000000     3.645000000     0.398000000
H     2.679000000     3.887000000     0.098000000
O    -3.304000000     4.657000000     5.018000000
H    -2.924000000     5.394000000     5.495000000
H    -3.980000000     4.316000000     5.603000000
O    -1.320000000    -0.275000000     4.567000000
H    -1.637000000    -0.790000000     3.824000000
H    -0.656000000     0.303000000     4.191000000
O    -3.693000000     5.626000000     2.375000000
H    -3.631000000     5.060000000     3.145000000
H    -2.890000000     5.452000000     1.884000000
O    -4.782000000     0.011000000    -2.229000000
H    -3.921000000    -0.119000000    -2.629000000
H    -5.048000000     0.885000000    -2.514000000
