158
-3004.71205
C     1.136000000    -0.475000000     0.834000000
H     1.935000000    -0.916000000     1.425000000
C     0.209000000    -1.235000000     0.150000000
H     0.370000000    -2.309000000     0.110000000
C    -0.784000000    -0.665000000    -0.636000000
H    -1.275000000    -1.132000000    -1.425000000
C    -0.933000000     0.716000000    -0.630000000
H    -1.665000000     1.000000000    -1.381000000
C    -0.054000000     1.555000000     0.095000000
H    -0.241000000     2.626000000     0.086000000
C     0.931000000     0.902000000     0.934000000
C     1.872000000     1.708000000     1.789000000
O     2.667000000     1.096000000     2.479000000
O     1.876000000     2.860000000     1.650000000
O    -1.742000000    -6.561000000    -2.794000000
H    -0.895000000    -6.918000000    -2.529000000
H    -1.874000000    -5.806000000    -2.221000000
O    -1.910000000    -1.058000000     4.425000000
H    -2.181000000    -1.449000000     3.595000000
H    -0.953000000    -1.077000000     4.397000000
O    -1.722000000     0.759000000    -4.110000000
H    -1.582000000     0.860000000    -5.052000000
H    -1.291000000    -0.067000000    -3.891000000
O     0.682000000    -5.551000000    -1.117000000
H     1.224000000    -6.251000000    -1.481000000
H     0.262000000    -5.946000000    -0.353000000
O    -0.204000000     2.442000000     5.394000000
H     0.751000000     2.419000000     5.340000000
H    -0.398000000     3.256000000     5.859000000
O     1.899000000     7.115000000    -1.223000000
H     2.076000000     6.549000000    -1.974000000
H     1.052000000     6.815000000    -0.891000000
O    -1.990000000     4.748000000     2.707000000
H    -1.075000000     4.954000000     2.899000000
H    -2.115000000     3.865000000     3.054000000
O    -4.214000000     1.400000000     1.259000000
H    -4.561000000     2.125000000     0.740000000
H    -3.297000000     1.630000000     1.411000000
O     0.635000000     0.091000000     4.192000000
H     0.335000000     0.871000000     4.659000000
H     1.503000000     0.327000000     3.864000000
O    -3.747000000    -5.903000000     0.245000000
H    -4.250000000    -5.573000000    -0.500000000
H    -4.163000000    -5.505000000     1.010000000
O    -4.038000000    -1.371000000    -0.374000000
H    -4.932000000    -1.541000000    -0.079000000
H    -4.027000000    -0.437000000    -0.582000000
O     1.282000000     5.352000000     2.163000000
H     0.705000000     5.848000000     1.582000000
H     1.392000000     4.507000000     1.728000000
O     5.583000000     1.888000000     3.066000000
H     4.897000000     1.875000000     2.398000000
H     6.400000000     1.928000000     2.570000000
O     0.397000000     5.608000000     4.764000000
H     0.858000000     5.570000000     3.926000000
H     0.680000000     6.434000000     5.156000000
O     5.671000000     4.519000000    -0.566000000
H     6.291000000     3.832000000    -0.811000000
H     4.848000000     4.055000000    -0.412000000
O     0.050000000    -0.197000000    -6.701000000
H    -0.023000000    -0.819000000    -7.425000000
H     0.472000000    -0.694000000    -6.000000000
O    -0.347000000     5.921000000    -0.131000000
H    -1.240000000     6.258000000    -0.064000000
H    -0.259000000     5.655000000    -1.047000000
O     0.316000000    -5.834000000    -4.526000000
H     0.857000000    -6.154000000    -3.805000000
H    -0.525000000    -5.623000000    -4.120000000
O    -2.786000000     3.199000000    -3.419000000
H    -2.919000000     3.556000000    -4.297000000
H    -2.393000000     2.339000000    -3.568000000
O     1.295000000    -0.672000000    -3.734000000
H     2.157000000    -0.277000000    -3.601000000
H     1.320000000    -1.479000000    -3.220000000
O    -5.136000000     3.768000000    -0.480000000
H    -4.660000000     4.469000000    -0.926000000
H    -5.817000000     3.508000000    -1.101000000
O    -2.096000000     2.100000000     3.384000000
H    -2.458000000     1.248000000     3.627000000
H    -1.449000000     2.287000000     4.064000000
O     3.360000000    -2.572000000    -0.726000000
H     2.611000000    -2.992000000    -1.149000000
H     3.943000000    -2.338000000    -1.448000000
O     3.164000000    -3.668000000     3.777000000
H     3.853000000    -4.332000000     3.776000000
H     3.494000000    -2.979000000     3.200000000
O     3.464000000    -3.363000000    -3.584000000
H     2.554000000    -3.303000000    -3.292000000
H     3.451000000    -3.025000000    -4.479000000
O    -5.648000000    -1.192000000    -3.121000000
H    -5.490000000    -0.795000000    -3.978000000
H    -4.852000000    -1.009000000    -2.622000000
O     3.299000000     3.653000000     3.780000000
H     3.857000000     2.896000000     3.958000000
H     2.788000000     3.399000000     3.012000000
O     0.743000000    -3.204000000    -2.676000000
H     0.665000000    -3.918000000    -2.043000000
H    -0.063000000    -3.251000000    -3.190000000
O    -6.511000000    -0.497000000     1.473000000
H    -5.999000000    -1.264000000     1.729000000
H    -5.855000000     0.161000000     1.241000000
O     2.878000000     2.295000000     6.487000000
H     3.357000000     1.759000000     7.119000000
H     3.236000000     2.041000000     5.637000000
O     1.335000000    -3.400000000    -6.070000000
H     1.684000000    -4.080000000    -6.646000000
H     0.654000000    -3.842000000    -5.563000000
O    -1.750000000    -4.440000000     3.343000000
H    -1.891000000    -3.810000000     2.636000000
H    -1.305000000    -5.176000000     2.923000000
O     1.560000000    -2.055000000     5.499000000
H     1.221000000    -1.243000000     5.122000000
H     2.143000000    -2.406000000     4.825000000
O    -1.452000000    -3.629000000    -4.270000000
H    -1.740000000    -3.083000000    -5.001000000
H    -2.181000000    -3.602000000    -3.649000000
O    -2.949000000    -2.767000000    -6.566000000
H    -3.719000000    -2.433000000    -7.027000000
H    -2.702000000    -3.553000000    -7.053000000
O    -5.553000000    -4.543000000    -1.542000000
H    -5.857000000    -4.180000000    -2.374000000
H    -6.349000000    -4.855000000    -1.112000000
O    -2.974000000    -3.667000000    -1.991000000
H    -3.757000000    -4.216000000    -1.940000000
H    -3.238000000    -2.837000000    -1.596000000
O     4.421000000     6.109000000     4.397000000
H     4.058000000     5.233000000     4.264000000
H     3.699000000     6.702000000     4.188000000
O     4.634000000     0.371000000     0.540000000
H     4.716000000    -0.346000000     1.169000000
H     3.898000000     0.891000000     0.864000000
O     3.168000000     3.055000000    -0.745000000
H     2.643000000     2.663000000    -1.443000000
H     2.571000000     3.109000000     0.002000000
O     4.255000000    -2.139000000     1.812000000
H     3.798000000    -2.235000000     0.976000000
H     4.951000000    -2.795000000     1.781000000
O    -0.986000000     5.420000000    -2.748000000
H    -0.406000000     5.052000000    -3.415000000
H    -1.632000000     4.732000000    -2.586000000
O     4.290000000     6.879000000     0.361000000
H     4.538000000     5.955000000     0.331000000
H     3.399000000     6.899000000     0.012000000
O     4.116000000    -0.063000000     4.766000000
H     3.864000000    -0.079000000     3.842000000
H     5.065000000     0.063000000     4.753000000
O    -4.247000000     1.151000000    -1.821000000
H    -3.501000000     1.742000000    -1.721000000
H    -4.992000000     1.731000000    -1.978000000
O     5.784000000     0.147000000    -2.130000000
H     5.205000000    -0.149000000    -2.832000000
H     5.215000000     0.217000000    -1.363000000
O    -2.209000000    -2.270000000     1.600000000
H    -1.359000000    -2.032000000     1.229000000
H    -2.835000000    -2.090000000     0.900000000
O     1.622000000     2.273000000    -2.747000000
H     1.656000000     2.451000000    -3.687000000
H     0.894000000     1.659000000    -2.645000000
