158
-3012.04553
C     0.558000000     1.022000000    -0.963000000
H     1.199000000     1.580000000    -1.641000000
C     0.249000000    -0.300000000    -1.284000000
H     0.540000000    -0.675000000    -2.262000000
C    -0.422000000    -1.068000000    -0.335000000
H    -0.771000000    -1.971000000    -0.546000000
C    -0.840000000    -0.571000000     0.869000000
H    -1.272000000    -1.190000000     1.652000000
C    -0.501000000     0.719000000     1.217000000
H    -0.726000000     1.038000000     2.231000000
C     0.302000000     1.473000000     0.329000000
C     0.955000000     2.713000000     0.791000000
O     1.793000000     3.265000000     0.092000000
O     0.727000000     3.087000000     1.909000000
O     2.619000000    -4.898000000    -2.234000000
H     3.373000000    -4.311000000    -2.180000000
H     2.629000000    -5.220000000    -3.135000000
O    -2.056000000    -1.413000000    -3.796000000
H    -1.172000000    -1.740000000    -3.633000000
H    -2.624000000    -1.995000000    -3.291000000
O     0.362000000    -6.868000000     2.043000000
H     0.495000000    -5.925000000     2.142000000
H     0.500000000    -7.033000000     1.110000000
O     6.363000000     3.158000000    -2.229000000
H     6.373000000     4.115000000    -2.210000000
H     5.603000000     2.915000000    -1.701000000
O    -0.823000000    -3.415000000    -5.855000000
H    -0.428000000    -3.051000000    -5.063000000
H    -0.121000000    -3.394000000    -6.505000000
O    -1.490000000     3.627000000     3.029000000
H    -0.750000000     3.187000000     2.610000000
H    -1.333000000     4.559000000     2.876000000
O    -3.804000000     3.174000000     1.775000000
H    -3.576000000     3.591000000     0.944000000
H    -3.005000000     3.230000000     2.298000000
O     2.909000000     4.594000000     2.799000000
H     2.700000000     4.630000000     3.732000000
H     2.212000000     4.060000000     2.418000000
O    -1.689000000     5.215000000    -2.935000000
H    -1.376000000     4.917000000    -3.789000000
H    -2.250000000     4.504000000    -2.624000000
O    -1.610000000     6.075000000    -0.354000000
H    -0.853000000     6.026000000     0.230000000
H    -1.413000000     5.453000000    -1.054000000
O     1.086000000    -4.125000000     3.078000000
H     1.713000000    -4.090000000     2.356000000
H     1.582000000    -3.830000000     3.842000000
O    -1.045000000    -0.002000000     7.685000000
H    -1.684000000     0.323000000     8.318000000
H    -1.267000000     0.445000000     6.868000000
O     0.274000000     5.674000000     1.590000000
H     0.565000000     4.765000000     1.661000000
H     1.079000000     6.175000000     1.459000000
O    -6.547000000    -1.431000000     1.628000000
H    -5.610000000    -1.543000000     1.468000000
H    -6.652000000    -0.494000000     1.794000000
O     1.946000000    -0.861000000    -5.356000000
H     1.660000000     0.001000000    -5.658000000
H     2.880000000    -0.754000000    -5.176000000
O     2.265000000     4.531000000    -5.776000000
H     2.646000000     3.835000000    -5.241000000
H     2.957000000     4.765000000    -6.394000000
O     0.336000000    -5.676000000    -1.287000000
H     1.058000000    -5.366000000    -1.833000000
H    -0.313000000    -6.003000000    -1.911000000
O     0.080000000     1.995000000    -4.477000000
H    -0.340000000     2.848000000    -4.587000000
H     0.804000000     2.160000000    -3.873000000
O    -1.255000000     0.071000000    -5.917000000
H    -0.750000000     0.663000000    -5.360000000
H    -1.666000000    -0.540000000    -5.306000000
O    -1.416000000    -5.967000000    -3.372000000
H    -1.831000000    -5.729000000    -4.201000000
H    -2.123000000    -5.917000000    -2.728000000
O     2.970000000     3.092000000    -3.559000000
H     3.503000000     3.286000000    -2.788000000
H     3.282000000     2.238000000    -3.857000000
O     0.940000000     4.973000000     5.426000000
H     0.622000000     5.038000000     6.326000000
H     0.895000000     4.039000000     5.223000000
O     4.872000000    -1.990000000     1.440000000
H     3.949000000    -1.869000000     1.220000000
H     5.143000000    -2.751000000     0.927000000
O    -1.394000000    -0.973000000     4.644000000
H    -1.809000000    -1.590000000     4.041000000
H    -1.731000000    -0.117000000     4.379000000
O     3.731000000     7.253000000     1.212000000
H     4.687000000     7.204000000     1.221000000
H     3.471000000     6.700000000     0.476000000
O    -3.611000000    -3.169000000    -2.280000000
H    -3.148000000    -3.826000000    -1.760000000
H    -4.532000000    -3.282000000    -2.044000000
O     2.378000000     5.655000000    -1.028000000
H     2.545000000     5.581000000    -1.968000000
H     2.044000000     4.794000000    -0.776000000
O    -3.411000000     1.011000000     3.617000000
H    -4.209000000     0.542000000     3.863000000
H    -3.653000000     1.499000000     2.830000000
O     0.773000000    -2.669000000    -3.681000000
H     1.407000000    -3.212000000    -3.213000000
H     1.307000000    -2.037000000    -4.162000000
O     4.284000000     0.481000000    -3.650000000
H     5.128000000     0.542000000    -4.098000000
H     4.394000000    -0.241000000    -3.031000000
O     3.185000000    -7.318000000    -1.058000000
H     2.366000000    -7.689000000    -0.731000000
H     2.940000000    -6.457000000    -1.397000000
O     2.521000000    -3.778000000     0.698000000
H     3.398000000    -4.153000000     0.782000000
H     2.376000000    -3.718000000    -0.246000000
O     3.088000000     1.098000000     2.984000000
H     2.641000000     0.670000000     2.254000000
H     3.621000000     1.778000000     2.573000000
O     2.199000000    -0.733000000     1.382000000
H     1.801000000    -1.264000000     2.072000000
H     1.601000000    -0.817000000     0.640000000
O    -3.430000000     0.645000000    -1.189000000
H    -3.474000000     0.077000000    -1.958000000
H    -2.727000000     0.272000000    -0.656000000
O    -1.699000000     1.959000000     5.704000000
H    -0.859000000     2.141000000     5.283000000
H    -2.284000000     1.729000000     4.982000000
O    -3.992000000    -2.582000000     1.562000000
H    -3.197000000    -2.897000000     1.992000000
H    -4.282000000    -3.319000000     1.024000000
O     4.900000000     4.278000000     4.703000000
H     4.435000000     4.248000000     3.867000000
H     5.586000000     4.933000000     4.572000000
O     3.983000000     2.494000000    -1.020000000
H     3.805000000     1.556000000    -1.091000000
H     3.200000000     2.855000000    -0.604000000
O     0.793000000     1.789000000     4.327000000
H     1.571000000     1.234000000     4.266000000
H     0.782000000     2.276000000     3.503000000
O     6.216000000     0.327000000     0.672000000
H     5.925000000    -0.555000000     0.900000000
H     5.545000000     0.903000000     1.038000000
O    -3.768000000    -6.683000000    -0.626000000
H    -3.028000000    -6.143000000    -0.348000000
H    -4.306000000    -6.775000000     0.160000000
O    -4.451000000    -0.058000000    -3.675000000
H    -3.608000000    -0.501000000    -3.771000000
H    -5.091000000    -0.682000000    -4.018000000
O    -1.918000000    -4.526000000     0.107000000
H    -1.044000000    -4.806000000    -0.165000000
H    -1.803000000    -4.226000000     1.008000000
O    -0.644000000     7.240000000     4.129000000
H    -0.359000000     6.919000000     4.984000000
H    -0.334000000     6.580000000     3.510000000
O     4.985000000     2.816000000     1.988000000
H     5.536000000     3.480000000     1.573000000
H     4.120000000     3.223000000     2.043000000
O    -3.381000000     3.193000000    -1.922000000
H    -3.462000000     2.305000000    -1.573000000
H    -4.106000000     3.274000000    -2.541000000
O    -1.758000000    -3.981000000     2.873000000
H    -0.853000000    -3.864000000     3.160000000
H    -2.197000000    -4.383000000     3.622000000
