158
-3040.95769
C     1.486000000    -0.475000000    -0.205000000
H     2.470000000    -0.832000000    -0.501000000
C     0.360000000    -1.334000000    -0.313000000
H     0.518000000    -2.380000000    -0.562000000
C    -0.893000000    -0.796000000     0.060000000
H    -1.733000000    -1.445000000     0.003000000
C    -1.095000000     0.537000000     0.334000000
H    -2.073000000     0.949000000     0.569000000
C    -0.017000000     1.388000000     0.262000000
H    -0.247000000     2.433000000     0.457000000
C     1.283000000     0.916000000     0.072000000
C     2.415000000     1.944000000    -0.079000000
O     3.591000000     1.579000000     0.041000000
O     2.085000000     3.010000000    -0.618000000
O     1.886000000    -3.583000000    -3.388000000
H     2.746000000    -3.943000000    -3.174000000
H     1.348000000    -3.773000000    -2.619000000
O     0.485000000     0.275000000     4.631000000
H     0.957000000    -0.384000000     4.122000000
H     0.913000000     0.268000000     5.487000000
O    -0.451000000    -2.241000000    -4.387000000
H     0.426000000    -2.462000000    -4.073000000
H    -0.370000000    -2.239000000    -5.341000000
O    -3.162000000     2.170000000     3.885000000
H    -3.961000000     2.251000000     3.364000000
H    -2.540000000     2.762000000     3.462000000
O     2.958000000    -4.778000000    -0.840000000
H     3.680000000    -4.302000000    -1.250000000
H     2.841000000    -5.554000000    -1.389000000
O    -4.849000000    -4.942000000     3.445000000
H    -3.988000000    -4.711000000     3.794000000
H    -5.319000000    -5.312000000     4.192000000
O     0.274000000     4.190000000     2.228000000
H     1.020000000     4.081000000     1.638000000
H     0.540000000     3.748000000     3.035000000
O    -2.429000000     4.593000000     2.340000000
H    -2.865000000     4.515000000     1.492000000
H    -1.498000000     4.489000000     2.141000000
O     3.458000000     2.701000000     4.247000000
H     3.655000000     2.920000000     5.158000000
H     2.519000000     2.864000000     4.160000000
O    -2.726000000    -6.798000000     1.605000000
H    -2.582000000    -7.222000000     2.451000000
H    -2.140000000    -6.041000000     1.613000000
O     1.391000000     6.841000000    -0.837000000
H     1.853000000     7.139000000    -1.620000000
H     2.013000000     6.258000000    -0.400000000
O    -5.480000000    -4.694000000     0.395000000
H    -4.577000000    -4.828000000     0.683000000
H    -5.753000000    -3.885000000     0.828000000
O     1.099000000     2.522000000    -3.001000000
H     1.891000000     2.288000000    -3.485000000
H     1.410000000     2.730000000    -2.120000000
O     2.914000000     5.062000000     0.733000000
H     2.545000000     4.305000000     0.277000000
H     3.835000000     5.073000000     0.473000000
O    -3.865000000     4.085000000     0.203000000
H    -3.650000000     3.705000000    -0.649000000
H    -4.512000000     3.486000000     0.575000000
O     7.124000000     4.969000000    -2.342000000
H     6.346000000     4.418000000    -2.260000000
H     7.355000000     4.921000000    -3.270000000
O     0.276000000     5.381000000    -3.540000000
H     0.441000000     5.941000000    -2.781000000
H     0.567000000     4.512000000    -3.264000000
O    -1.444000000     1.847000000    -2.393000000
H    -0.548000000     2.157000000    -2.528000000
H    -1.351000000     1.086000000    -1.821000000
O     0.861000000     3.258000000     4.541000000
H     0.125000000     3.774000000     4.871000000
H     0.652000000     2.357000000     4.788000000
O     8.670000000    -0.391000000    -0.560000000
H     8.792000000     0.014000000     0.298000000
H     7.882000000     0.022000000    -0.911000000
O     6.313000000    -2.104000000     1.340000000
H     6.945000000    -2.290000000     2.034000000
H     6.509000000    -2.747000000     0.659000000
O    -5.038000000     2.371000000     1.988000000
H    -5.254000000     1.517000000     1.613000000
H    -5.885000000     2.806000000     2.095000000
O    -4.360000000    -1.476000000    -0.757000000
H    -3.717000000    -1.144000000    -1.383000000
H    -4.363000000    -2.423000000    -0.896000000
O     6.610000000     3.239000000     0.436000000
H     7.061000000     2.402000000     0.552000000
H     6.582000000     3.366000000    -0.513000000
O     4.836000000    -3.255000000    -2.084000000
H     4.712000000    -2.323000000    -1.909000000
H     5.741000000    -3.430000000    -1.824000000
O     3.318000000    -4.049000000     1.711000000
H     2.998000000    -4.102000000     0.811000000
H     3.834000000    -3.244000000     1.735000000
O    -5.858000000    -0.151000000     0.888000000
H    -5.343000000    -0.709000000     0.306000000
H    -5.801000000    -0.578000000     1.742000000
O     2.039000000     7.039000000     3.114000000
H     2.459000000     7.866000000     2.878000000
H     1.712000000     6.691000000     2.284000000
O     3.639000000    -1.578000000    -4.777000000
H     3.925000000    -1.204000000    -3.944000000
H     3.078000000    -2.314000000    -4.529000000
O     1.132000000    -1.920000000     3.212000000
H     1.374000000    -2.631000000     2.619000000
H     0.266000000    -1.643000000     2.914000000
O     4.098000000    -0.266000000    -2.368000000
H     3.378000000     0.331000000    -2.572000000
H     4.626000000     0.207000000    -1.726000000
O     4.702000000    -1.743000000     3.699000000
H     4.474000000    -0.832000000     3.514000000
H     5.243000000    -2.011000000     2.956000000
O    -5.743000000     0.832000000    -2.344000000
H    -5.562000000    -0.058000000    -2.042000000
H    -6.479000000     0.735000000    -2.949000000
O    -2.438000000    -4.406000000    -3.927000000
H    -1.935000000    -3.651000000    -4.230000000
H    -3.045000000    -4.593000000    -4.643000000
O    -3.910000000    -1.318000000     6.533000000
H    -4.828000000    -1.048000000     6.548000000
H    -3.625000000    -1.148000000     5.635000000
O    -2.210000000    -0.398000000     4.146000000
H    -2.710000000     0.418000000     4.178000000
H    -1.330000000    -0.151000000     4.430000000
O    -1.822000000    -3.709000000    -1.453000000
H    -1.975000000    -4.365000000    -2.133000000
H    -2.033000000    -2.875000000    -1.872000000
O     5.534000000     4.321000000     2.832000000
H     4.765000000     3.857000000     3.163000000
H     5.709000000     3.917000000     1.982000000
O     5.937000000     0.441000000    -0.432000000
H     6.254000000    -0.129000000     0.269000000
H     5.191000000     0.901000000    -0.047000000
O     4.976000000     3.487000000    -1.754000000
H     4.267000000     3.693000000    -2.362000000
H     4.590000000     2.865000000    -1.137000000
O    -5.243000000    -2.224000000     2.696000000
H    -5.959000000    -1.950000000     3.269000000
H    -4.944000000    -3.054000000     3.067000000
O    -2.389000000    -0.903000000    -2.741000000
H    -1.606000000    -1.280000000    -3.144000000
H    -2.513000000    -0.068000000    -3.194000000
O    -0.998000000    -4.440000000     1.386000000
H    -1.019000000    -3.848000000     0.634000000
H    -1.284000000    -3.901000000     2.124000000
O    -0.115000000     2.461000000    -5.379000000
H     0.084000000     2.377000000    -4.446000000
H    -0.288000000     1.566000000    -5.668000000
O     3.644000000     0.469000000     2.583000000
H     3.400000000     1.291000000     3.007000000
H     3.941000000     0.728000000     1.711000000
O    -3.935000000     2.892000000    -2.445000000
H    -3.144000000     2.353000000    -2.474000000
H    -4.646000000     2.266000000    -2.308000000
O    -2.493000000    -3.263000000     3.975000000
H    -1.883000000    -3.417000000     4.697000000
H    -2.645000000    -2.318000000     3.988000000
O     3.659000000     2.134000000    -4.284000000
H     3.224000000     2.270000000    -5.125000000
H     4.582000000     2.321000000    -4.459000000
