158
-3013.80969
C     1.415000000    -0.322000000     0.499000000
H     2.437000000    -0.572000000     0.773000000
C     0.521000000    -1.199000000     0.000000000
H     0.862000000    -2.224000000    -0.114000000
C    -0.781000000    -0.857000000    -0.323000000
H    -1.478000000    -1.686000000    -0.600000000
C    -1.197000000     0.464000000    -0.217000000
H    -2.246000000     0.635000000    -0.446000000
C    -0.296000000     1.475000000     0.265000000
H    -0.546000000     2.512000000     0.474000000
C     1.004000000     1.023000000     0.595000000
C     2.057000000     2.146000000     0.922000000
O     3.134000000     1.818000000     1.377000000
O     1.838000000     3.277000000     0.753000000
O    -3.535000000    -3.740000000     3.386000000
H    -3.401000000    -3.036000000     4.021000000
H    -2.983000000    -3.499000000     2.642000000
O     5.555000000    -1.242000000     0.573000000
H     4.957000000    -1.832000000     0.115000000
H     6.423000000    -1.481000000     0.250000000
O    -0.255000000     1.045000000     4.293000000
H    -0.296000000     1.990000000     4.445000000
H     0.602000000     0.785000000     4.631000000
O     7.063000000     1.840000000     4.463000000
H     6.667000000     1.277000000     3.798000000
H     6.340000000     2.380000000     4.782000000
O     1.724000000     1.081000000    -4.170000000
H     2.013000000     1.546000000    -3.384000000
H     2.360000000     1.328000000    -4.841000000
O    -5.068000000     2.219000000    -4.507000000
H    -5.897000000     2.554000000    -4.165000000
H    -4.651000000     1.800000000    -3.754000000
O     1.780000000     5.771000000     3.961000000
H     1.071000000     5.612000000     3.338000000
H     1.344000000     5.821000000     4.812000000
O     1.980000000    -1.306000000     3.303000000
H     2.152000000    -0.692000000     4.017000000
H     1.465000000    -0.802000000     2.673000000
O    -2.072000000     3.767000000     2.588000000
H    -1.961000000     3.644000000     3.531000000
H    -1.316000000     4.291000000     2.324000000
O     4.217000000     3.948000000     0.058000000
H     4.623000000     3.124000000     0.327000000
H     3.289000000     3.835000000     0.261000000
O    -5.127000000    -0.661000000    -0.459000000
H    -5.873000000    -0.069000000    -0.362000000
H    -4.677000000    -0.619000000     0.385000000
O     5.030000000    -0.951000000     4.939000000
H     5.076000000    -0.512000000     4.089000000
H     5.532000000    -1.758000000     4.819000000
O    -0.335000000    -6.067000000     2.969000000
H    -0.653000000    -6.130000000     3.869000000
H    -0.473000000    -5.151000000     2.729000000
O     6.458000000     5.441000000     0.514000000
H     6.273000000     6.121000000     1.162000000
H     5.603000000     5.056000000     0.321000000
O     4.829000000     6.685000000     2.435000000
H     4.415000000     5.837000000     2.275000000
H     4.162000000     7.327000000     2.191000000
O    -4.587000000     2.847000000     1.612000000
H    -3.713000000     2.893000000     2.000000000
H    -5.176000000     2.744000000     2.360000000
O    -1.233000000    -3.389000000     1.744000000
H    -0.761000000    -2.559000000     1.813000000
H    -1.126000000    -3.651000000     0.830000000
O    -1.158000000     4.480000000    -3.030000000
H    -1.022000000     3.940000000    -3.808000000
H    -1.345000000     5.353000000    -3.375000000
O     0.107000000    -2.293000000    -6.607000000
H    -0.110000000    -1.901000000    -7.453000000
H    -0.027000000    -1.587000000    -5.975000000
O     3.883000000    -4.016000000    -0.156000000
H     3.895000000    -4.161000000    -1.102000000
H     4.683000000    -4.435000000     0.162000000
O    -4.256000000     1.236000000    -2.317000000
H    -4.219000000     2.123000000    -1.960000000
H    -4.385000000     0.675000000    -1.553000000
O     3.625000000     4.040000000     2.968000000
H     2.775000000     4.475000000     2.896000000
H     3.513000000     3.216000000     2.493000000
O    -1.954000000     1.336000000    -3.989000000
H    -2.352000000     1.215000000    -3.128000000
H    -2.264000000     2.194000000    -4.279000000
O    -0.952000000    -4.600000000    -0.854000000
H    -0.343000000    -5.333000000    -0.939000000
H    -0.957000000    -4.191000000    -1.719000000
O    -4.123000000    -2.807000000    -2.130000000
H    -4.566000000    -2.121000000    -1.630000000
H    -3.317000000    -2.394000000    -2.440000000
O     3.655000000    -3.420000000     2.602000000
H     3.051000000    -2.746000000     2.913000000
H     3.566000000    -3.401000000     1.650000000
O    -3.521000000    -5.153000000    -0.643000000
H    -2.573000000    -5.219000000    -0.751000000
H    -3.760000000    -4.350000000    -1.107000000
O     2.234000000     0.719000000     5.178000000
H     2.098000000     0.727000000     6.126000000
H     3.151000000     0.967000000     5.066000000
O    -6.251000000    -5.353000000    -0.043000000
H    -5.389000000    -5.047000000    -0.325000000
H    -6.558000000    -5.901000000    -0.765000000
O    -1.048000000     6.147000000    -0.560000000
H    -1.031000000     5.628000000    -1.364000000
H    -1.913000000     5.980000000    -0.186000000
O     4.898000000     3.388000000     5.306000000
H     4.865000000     4.137000000     5.901000000
H     4.669000000     3.750000000     4.450000000
O    -6.952000000     1.105000000     0.124000000
H    -6.216000000     1.591000000     0.496000000
H    -7.471000000     0.839000000     0.883000000
O    -0.243000000    -0.554000000    -4.341000000
H    -0.982000000     0.034000000    -4.188000000
H     0.525000000    -0.050000000    -4.071000000
O    -5.509000000    -2.362000000    -5.178000000
H    -4.574000000    -2.569000000    -5.166000000
H    -5.943000000    -3.215000000    -5.154000000
O     0.383000000     5.238000000     1.742000000
H     0.981000000     4.568000000     1.410000000
H     0.267000000     5.840000000     1.008000000
O     4.024000000     5.158000000    -3.435000000
H     3.779000000     5.552000000    -4.272000000
H     3.219000000     5.174000000    -2.917000000
O    -4.293000000    -0.725000000     2.245000000
H    -3.347000000    -0.611000000     2.329000000
H    -4.608000000    -0.789000000     3.147000000
O    -1.552000000    -0.543000000     2.513000000
H    -1.242000000    -0.337000000     1.632000000
H    -1.150000000     0.123000000     3.071000000
O     1.188000000    -6.422000000    -1.367000000
H     2.020000000    -6.576000000    -0.919000000
H     1.418000000    -6.392000000    -2.295000000
O     4.947000000     0.521000000     2.604000000
H     4.202000000     0.983000000     2.219000000
H     5.194000000    -0.126000000     1.942000000
O    -3.073000000    -5.009000000    -6.387000000
H    -2.928000000    -5.897000000    -6.061000000
H    -2.934000000    -4.447000000    -5.625000000
O    -0.795000000    -2.920000000    -3.319000000
H    -1.424000000    -3.009000000    -4.036000000
H    -0.557000000    -1.993000000    -3.323000000
O    -3.790000000     3.421000000    -0.845000000
H    -3.478000000     4.311000000    -0.680000000
H    -3.850000000     3.023000000     0.023000000
O     3.552000000    -1.642000000    -3.530000000
H     2.890000000    -0.990000000    -3.298000000
H     3.053000000    -2.363000000    -3.914000000
O     1.417000000     5.782000000    -2.675000000
H     1.495000000     5.049000000    -2.064000000
H     0.528000000     5.710000000    -3.022000000
O     3.328000000     2.420000000    -2.317000000
H     3.857000000     1.645000000    -2.130000000
H     3.773000000     3.130000000    -1.853000000
O     4.941000000     1.082000000    -0.552000000
H     4.177000000     1.189000000     0.015000000
H     5.230000000     0.183000000    -0.397000000
O    -2.744000000    -2.192000000    -5.658000000
H    -2.434000000    -1.287000000    -5.620000000
H    -2.685000000    -2.427000000    -6.584000000
