158
-3043.28512
C    -0.065000000    -1.287000000     0.706000000
H     0.000000000    -2.223000000     1.254000000
C     0.703000000    -1.004000000    -0.422000000
H     1.305000000    -1.790000000    -0.869000000
C     0.608000000     0.261000000    -0.970000000
H     1.210000000     0.453000000    -1.816000000
C    -0.103000000     1.295000000    -0.432000000
H    -0.129000000     2.288000000    -0.871000000
C    -0.879000000     1.009000000     0.709000000
H    -1.345000000     1.877000000     1.168000000
C    -0.868000000    -0.295000000     1.262000000
C    -1.687000000    -0.631000000     2.448000000
O    -1.536000000    -1.675000000     3.031000000
O    -2.596000000     0.118000000     2.724000000
O     3.635000000     1.957000000     0.231000000
H     3.494000000     1.343000000    -0.490000000
H     4.585000000     2.070000000     0.267000000
O    -1.445000000    -3.980000000     5.973000000
H    -0.509000000    -3.901000000     6.156000000
H    -1.588000000    -3.419000000     5.211000000
O     3.982000000    -0.129000000    -2.372000000
H     4.646000000    -0.575000000    -2.897000000
H     3.987000000     0.772000000    -2.695000000
O     0.500000000    -6.719000000     0.775000000
H     0.951000000    -7.520000000     0.506000000
H     1.202000000    -6.133000000     1.058000000
O     1.433000000    -4.659000000     3.028000000
H     0.497000000    -4.827000000     3.135000000
H     1.532000000    -3.725000000     3.212000000
O    -5.278000000    -0.038000000    -0.478000000
H    -4.465000000     0.152000000    -0.946000000
H    -5.962000000     0.042000000    -1.144000000
O    -2.858000000     2.046000000     6.009000000
H    -2.395000000     1.916000000     6.836000000
H    -2.179000000     2.329000000     5.396000000
O    -4.252000000     4.568000000     3.403000000
H    -4.833000000     3.967000000     3.868000000
H    -3.420000000     4.099000000     3.342000000
O    -4.908000000    -1.086000000     3.163000000
H    -4.649000000    -1.608000000     3.922000000
H    -4.125000000    -0.582000000     2.940000000
O     2.060000000    -2.129000000     3.761000000
H     1.567000000    -1.651000000     4.427000000
H     2.353000000    -1.454000000     3.149000000
O    -2.723000000     0.269000000    -1.723000000
H    -2.451000000     1.006000000    -2.270000000
H    -1.967000000     0.095000000    -1.162000000
O    -6.588000000     1.418000000     2.935000000
H    -6.200000000     0.692000000     2.447000000
H    -5.855000000     1.802000000     3.416000000
O    -1.409000000     2.490000000     3.879000000
H    -1.804000000     1.726000000     3.458000000
H    -0.481000000     2.438000000     3.647000000
O     4.185000000    -4.447000000    -1.043000000
H     3.744000000    -4.914000000    -0.333000000
H     4.503000000    -3.640000000    -0.638000000
O     3.029000000     0.012000000    -5.861000000
H     2.673000000    -0.035000000    -4.974000000
H     2.365000000     0.485000000    -6.362000000
O     0.440000000    -6.751000000    -1.970000000
H     1.068000000    -6.064000000    -2.193000000
H     0.250000000    -6.610000000    -1.043000000
O     2.441000000     4.195000000     1.051000000
H     3.152000000     3.587000000     0.845000000
H     1.943000000     3.756000000     1.740000000
O     4.041000000    -2.464000000     0.800000000
H     4.265000000    -2.213000000     1.696000000
H     3.263000000    -1.945000000     0.593000000
O     0.106000000    -3.692000000    -4.781000000
H     0.675000000    -2.925000000    -4.711000000
H    -0.441000000    -3.656000000    -3.996000000
O    -3.391000000    -2.520000000    -2.604000000
H    -3.386000000    -1.661000000    -2.182000000
H    -2.516000000    -2.872000000    -2.440000000
O    -1.704000000    -4.587000000     0.002000000
H    -0.927000000    -4.626000000     0.560000000
H    -2.425000000    -4.414000000     0.607000000
O    -4.108000000     1.935000000     1.795000000
H    -3.588000000     1.193000000     2.102000000
H    -4.254000000     1.756000000     0.866000000
O    -5.426000000     3.036000000     5.261000000
H    -4.640000000     2.624000000     5.619000000
H    -6.136000000     2.729000000     5.825000000
O    -0.337000000    -0.292000000    -7.146000000
H    -0.590000000    -0.542000000    -6.257000000
H    -1.149000000    -0.350000000    -7.651000000
O    -1.910000000     4.795000000    -3.140000000
H    -1.462000000     4.965000000    -2.312000000
H    -2.709000000     5.319000000    -3.092000000
O     1.871000000    -4.765000000    -2.936000000
H     1.587000000    -4.059000000    -3.518000000
H     2.827000000    -4.740000000    -2.978000000
O    -0.590000000     4.475000000     1.937000000
H     0.128000000     4.763000000     2.501000000
H    -1.094000000     3.870000000     2.482000000
O     1.216000000     2.503000000     3.217000000
H     1.691000000     1.676000000     3.127000000
H     1.550000000     2.883000000     4.030000000
O     3.307000000    -5.973000000     1.006000000
H     4.193000000    -6.302000000     1.152000000
H     3.052000000    -5.589000000     1.845000000
O    -3.649000000    -5.464000000     5.523000000
H    -4.351000000    -4.822000000     5.627000000
H    -2.846000000    -4.968000000     5.685000000
O     2.304000000    -2.166000000    -3.766000000
H     2.819000000    -1.862000000    -3.019000000
H     2.955000000    -2.385000000    -4.433000000
O     4.079000000    -2.749000000    -6.370000000
H     4.301000000    -2.898000000    -7.289000000
H     3.694000000    -1.873000000    -6.355000000
O    -1.373000000    -0.834000000    -4.754000000
H    -1.634000000    -0.029000000    -4.308000000
H    -2.199000000    -1.278000000    -4.950000000
O    -1.734000000     4.546000000    -0.500000000
H    -2.628000000     4.600000000    -0.163000000
H    -1.189000000     4.449000000     0.281000000
O    -1.143000000    -4.234000000     2.941000000
H    -1.227000000    -3.283000000     2.866000000
H    -2.014000000    -4.531000000     3.202000000
O     5.519000000    -1.454000000    -4.252000000
H     5.824000000    -1.365000000    -5.155000000
H     6.275000000    -1.207000000    -3.719000000
O     2.296000000     0.084000000     1.973000000
H     2.893000000     0.770000000     1.675000000
H     1.613000000     0.054000000     1.303000000
O    -3.678000000    -3.285000000     1.492000000
H    -3.949000000    -4.014000000     2.050000000
H    -4.092000000    -2.517000000     1.884000000
O     3.813000000     2.687000000    -3.469000000
H     3.748000000     3.600000000    -3.751000000
H     4.361000000     2.270000000    -4.133000000
O    -4.327000000    -1.747000000     7.560000000
H    -3.808000000    -1.697000000     6.757000000
H    -5.183000000    -1.395000000     7.314000000
O     0.968000000     5.670000000    -0.787000000
H     1.382000000     5.362000000     0.018000000
H     0.404000000     4.946000000    -1.059000000
O     0.804000000     2.366000000    -4.759000000
H     0.808000000     2.209000000    -5.703000000
H     1.691000000     2.670000000    -4.564000000
O     5.109000000     1.774000000    -5.795000000
H     4.955000000     2.358000000    -6.538000000
H     4.511000000     1.041000000    -5.938000000
O    -4.631000000     5.075000000     0.625000000
H    -4.712000000     4.505000000     1.390000000
H    -5.524000000     5.376000000     0.455000000
O    -1.753000000     2.070000000    -3.670000000
H    -0.985000000     2.061000000    -4.242000000
H    -1.799000000     2.969000000    -3.345000000
O    -2.839000000    -1.328000000     5.385000000
H    -2.234000000    -1.492000000     4.662000000
H    -2.965000000    -0.379000000     5.381000000
O    -0.821000000    -3.464000000    -2.085000000
H    -1.131000000    -3.854000000    -1.267000000
H     0.133000000    -3.512000000    -2.027000000
O     6.331000000     3.143000000    -1.561000000
H     6.529000000     2.359000000    -1.050000000
H     5.402000000     3.060000000    -1.777000000
