158
-3019.20485
C     0.192000000    -1.429000000    -0.255000000
H     0.400000000    -2.457000000    -0.541000000
C     0.371000000    -0.424000000    -1.176000000
H     0.676000000    -0.590000000    -2.206000000
C     0.207000000     0.886000000    -0.829000000
H     0.407000000     1.705000000    -1.534000000
C    -0.214000000     1.246000000     0.455000000
H    -0.283000000     2.274000000     0.802000000
C    -0.449000000     0.227000000     1.328000000
H    -0.724000000     0.458000000     2.354000000
C    -0.254000000    -1.102000000     1.024000000
C    -0.509000000    -2.136000000     2.112000000
O    -0.429000000    -3.303000000     1.918000000
O    -0.802000000    -1.861000000     3.284000000
O     2.674000000     1.544000000     4.488000000
H     3.630000000     1.539000000     4.437000000
H     2.412000000     0.684000000     4.160000000
O     5.012000000     4.754000000    -1.193000000
H     5.896000000     5.109000000    -1.097000000
H     4.742000000     4.540000000    -0.299000000
O     2.593000000    -6.285000000     1.659000000
H     1.800000000    -6.353000000     1.127000000
H     3.294000000    -6.588000000     1.082000000
O     4.637000000    -0.126000000     2.253000000
H     3.846000000    -0.664000000     2.279000000
H     4.913000000    -0.150000000     1.337000000
O    -4.141000000     1.772000000    -1.785000000
H    -4.810000000     1.828000000    -1.103000000
H    -4.064000000     2.665000000    -2.120000000
O    -3.510000000     2.283000000     1.887000000
H    -3.474000000     1.348000000     1.685000000
H    -2.969000000     2.379000000     2.671000000
O    -4.003000000    -1.159000000    -4.193000000
H    -3.467000000    -1.329000000    -4.967000000
H    -3.375000000    -1.102000000    -3.473000000
O     0.441000000     4.818000000     1.373000000
H     0.528000000     4.524000000     2.280000000
H    -0.447000000     4.564000000     1.123000000
O     3.220000000    -1.903000000     0.461000000
H     3.051000000    -2.729000000     0.914000000
H     2.505000000    -1.826000000    -0.171000000
O     1.651000000    -1.007000000     4.053000000
H     0.913000000    -1.436000000     3.621000000
H     2.383000000    -1.614000000     3.937000000
O    -2.748000000    -0.556000000    -1.833000000
H    -3.251000000     0.258000000    -1.832000000
H    -1.973000000    -0.360000000    -1.306000000
O    -1.495000000     0.711000000     5.176000000
H    -1.263000000    -0.118000000     4.757000000
H    -0.816000000     1.322000000     4.889000000
O     0.634000000     2.448000000    -5.943000000
H     0.225000000     1.737000000    -5.449000000
H     1.107000000     2.956000000    -5.284000000
O    -1.763000000    -2.366000000     5.740000000
H    -1.518000000    -2.251000000     4.822000000
H    -2.684000000    -2.622000000     5.712000000
O    -1.993000000    -1.860000000    -5.970000000
H    -1.358000000    -2.575000000    -5.953000000
H    -1.911000000    -1.488000000    -6.849000000
O     0.215000000    -3.416000000    -5.115000000
H     0.020000000    -4.352000000    -5.092000000
H    -0.172000000    -3.071000000    -4.310000000
O     4.455000000     0.667000000    -5.636000000
H     5.066000000     0.475000000    -4.925000000
H     3.630000000     0.869000000    -5.196000000
O     0.969000000    -5.037000000     3.572000000
H     0.673000000    -4.300000000     3.038000000
H     1.603000000    -5.494000000     3.018000000
O     3.480000000     3.907000000     2.250000000
H     2.611000000     3.673000000     2.574000000
H     3.999000000     3.110000000     2.357000000
O     1.771000000     5.131000000    -0.969000000
H     1.622000000     6.062000000    -1.131000000
H     1.340000000     4.962000000    -0.131000000
O    -0.786000000    -7.440000000     1.897000000
H    -1.173000000    -6.583000000     2.078000000
H    -1.483000000    -8.065000000     2.098000000
O    -1.603000000    -5.229000000     5.128000000
H    -1.893000000    -4.479000000     4.608000000
H    -0.686000000    -5.352000000     4.879000000
O    -5.303000000    -4.273000000     2.568000000
H    -5.091000000    -4.268000000     3.502000000
H    -4.705000000    -4.919000000     2.191000000
O     4.928000000    -4.528000000    -1.711000000
H     4.284000000    -3.916000000    -2.068000000
H     4.496000000    -5.381000000    -1.750000000
O    -3.494000000    -0.502000000     2.422000000
H    -3.729000000    -0.403000000     3.344000000
H    -2.630000000    -0.915000000     2.438000000
O    -4.024000000     4.667000000    -2.214000000
H    -4.416000000     4.829000000    -3.072000000
H    -4.631000000     5.071000000    -1.593000000
O    -0.287000000    -0.043000000    -7.434000000
H    -0.852000000     0.076000000    -8.198000000
H    -0.223000000     0.829000000    -7.045000000
O    -0.870000000    -5.906000000    -1.973000000
H    -1.653000000    -6.241000000    -1.535000000
H    -0.178000000    -6.520000000    -1.728000000
O     3.491000000    -2.452000000    -2.955000000
H     2.960000000    -1.989000000    -3.604000000
H     4.381000000    -2.131000000    -3.102000000
O     0.991000000     3.564000000     3.942000000
H     0.921000000     4.140000000     4.704000000
H     1.526000000     2.831000000     4.246000000
O    -0.033000000     5.397000000    -5.605000000
H    -0.017000000     5.596000000    -4.668000000
H    -0.237000000     4.463000000    -5.648000000
O    -1.581000000    -3.150000000    -3.069000000
H    -1.617000000    -3.940000000    -2.530000000
H    -1.894000000    -2.453000000    -2.493000000
O    -1.479000000     7.042000000    -0.120000000
H    -1.924000000     6.221000000     0.093000000
H    -1.104000000     7.334000000     0.710000000
O     0.747000000    -3.672000000     6.142000000
H    -0.192000000    -3.491000000     6.180000000
H     0.872000000    -4.116000000     5.303000000
O     3.670000000     5.987000000    -3.764000000
H     4.019000000     5.655000000    -2.936000000
H     4.257000000     5.630000000    -4.431000000
O    -3.641000000    -3.072000000    -0.868000000
H    -3.483000000    -2.257000000    -1.345000000
H    -4.549000000    -3.004000000    -0.573000000
O     1.483000000     3.524000000    -3.472000000
H     2.405000000     3.392000000    -3.253000000
H     1.097000000     3.892000000    -2.677000000
O    -1.949000000    -0.661000000     7.780000000
H    -2.415000000    -1.488000000     7.904000000
H    -2.209000000    -0.368000000     6.907000000
O     2.160000000    -0.986000000     6.910000000
H     1.586000000    -1.159000000     6.163000000
H     2.757000000    -1.734000000     6.931000000
O    -1.666000000     5.834000000    -3.021000000
H    -2.315000000     5.161000000    -2.813000000
H    -1.206000000     5.985000000    -2.195000000
O    -4.129000000     2.234000000     4.730000000
H    -3.440000000     1.609000000     4.500000000
H    -4.360000000     2.013000000     5.632000000
O    -0.851000000     0.534000000    -4.585000000
H    -1.296000000    -0.012000000    -5.232000000
H    -1.475000000     0.607000000    -3.863000000
O    -2.266000000     4.380000000     0.059000000
H    -2.661000000     4.180000000    -0.789000000
H    -2.557000000     3.671000000     0.632000000
O    -3.986000000    -7.103000000     2.040000000
H    -3.978000000    -8.044000000     1.866000000
H    -3.338000000    -6.742000000     1.435000000
O     4.562000000     2.447000000    -2.913000000
H     4.955000000     1.692000000    -2.476000000
H     4.680000000     3.169000000    -2.295000000
O     1.958000000    -1.334000000    -4.793000000
H     1.358000000    -0.628000000    -5.035000000
H     1.392000000    -2.096000000    -4.666000000
O    -2.449000000    -5.005000000     1.169000000
H    -1.587000000    -4.670000000     1.417000000
H    -2.805000000    -4.338000000     0.581000000
O    -4.458000000    -1.147000000     5.184000000
H    -4.251000000    -0.814000000     6.057000000
H    -5.382000000    -1.392000000     5.233000000
