158
-3051.87118
C    -0.544000000    -1.275000000     0.464000000
H    -0.997000000    -2.255000000     0.594000000
C    -0.227000000    -0.920000000    -0.853000000
H    -0.477000000    -1.561000000    -1.694000000
C     0.349000000     0.293000000    -1.118000000
H     0.603000000     0.528000000    -2.156000000
C     0.698000000     1.185000000    -0.107000000
H     1.283000000     2.048000000    -0.415000000
C     0.315000000     0.912000000     1.186000000
H     0.530000000     1.581000000     2.015000000
C    -0.369000000    -0.336000000     1.509000000
C    -0.970000000    -0.692000000     2.865000000
O    -1.844000000    -1.563000000     2.971000000
O    -0.666000000    -0.021000000     3.829000000
O     3.185000000     4.317000000     0.347000000
H     2.386000000     4.683000000    -0.032000000
H     2.886000000     3.842000000     1.123000000
O     6.573000000     0.303000000    -1.488000000
H     5.697000000    -0.079000000    -1.443000000
H     6.727000000     0.655000000    -0.611000000
O     2.803000000     2.850000000    -4.122000000
H     3.735000000     2.672000000    -3.994000000
H     2.362000000     2.293000000    -3.481000000
O     0.252000000    -4.496000000     0.500000000
H    -0.211000000    -4.324000000    -0.319000000
H     1.142000000    -4.180000000     0.343000000
O     3.960000000    -0.814000000    -2.426000000
H     3.451000000    -1.515000000    -2.833000000
H     3.555000000    -0.691000000    -1.567000000
O    -3.000000000     2.640000000     0.986000000
H    -3.445000000     1.901000000     0.572000000
H    -2.991000000     2.422000000     1.918000000
O    -0.482000000    -5.203000000     4.611000000
H    -0.951000000    -6.028000000     4.741000000
H    -1.098000000    -4.651000000     4.128000000
O    -0.560000000     2.573000000     8.114000000
H     0.157000000     2.509000000     7.482000000
H    -1.336000000     2.743000000     7.580000000
O    -3.843000000     0.637000000    -0.758000000
H    -4.779000000     0.788000000    -0.890000000
H    -3.802000000    -0.004000000    -0.049000000
O    -1.309000000     4.269000000    -0.106000000
H    -0.629000000     4.373000000     0.560000000
H    -1.960000000     3.699000000     0.303000000
O     4.891000000     0.697000000    -4.631000000
H     4.843000000    -0.021000000    -3.999000000
H     5.550000000     1.291000000    -4.270000000
O    -2.350000000    -1.342000000     7.995000000
H    -1.412000000    -1.219000000     8.137000000
H    -2.424000000    -2.225000000     7.632000000
O    -6.039000000    -1.652000000     4.997000000
H    -5.245000000    -1.947000000     4.552000000
H    -5.733000000    -1.337000000     5.848000000
O     3.054000000     2.469000000     2.532000000
H     3.565000000     2.025000000     1.856000000
H     2.744000000     1.764000000     3.100000000
O     2.660000000    -1.035000000     0.154000000
H     2.659000000    -1.953000000     0.426000000
H     1.736000000    -0.821000000     0.028000000
O     1.867000000     0.590000000     4.339000000
H     1.119000000     0.298000000     3.818000000
H     2.164000000    -0.197000000     4.794000000
O    -3.143000000    -1.760000000    -2.605000000
H    -3.620000000    -1.700000000    -3.433000000
H    -3.313000000    -0.924000000    -2.171000000
O    -3.185000000     4.710000000     3.621000000
H    -2.511000000     4.041000000     3.500000000
H    -2.695000000     5.524000000     3.743000000
O    -2.671000000     0.097000000     5.586000000
H    -2.066000000    -0.158000000     4.889000000
H    -2.422000000    -0.449000000     6.331000000
O    -1.510000000     1.276000000    -4.958000000
H    -2.131000000     0.897000000    -5.580000000
H    -2.057000000     1.617000000    -4.251000000
O    -3.215000000    -2.982000000     4.446000000
H    -2.784000000    -2.342000000     3.880000000
H    -2.519000000    -3.298000000     5.023000000
O    -0.678000000    -4.408000000    -2.446000000
H    -1.285000000    -4.816000000    -3.063000000
H     0.016000000    -5.057000000    -2.328000000
O     1.876000000    -0.317000000    -6.789000000
H     2.472000000     0.417000000    -6.637000000
H     1.657000000    -0.632000000    -5.912000000
O     0.020000000    -1.256000000    -4.830000000
H    -0.287000000    -0.357000000    -4.707000000
H    -0.283000000    -1.495000000    -5.706000000
O    -2.050000000    -4.111000000     2.061000000
H    -2.091000000    -3.192000000     2.327000000
H    -1.175000000    -4.212000000     1.684000000
O     3.585000000     1.768000000    -6.938000000
H     4.397000000     1.727000000    -7.444000000
H     3.826000000     1.442000000    -6.071000000
O     1.515000000     2.444000000     6.552000000
H     2.115000000     3.038000000     7.004000000
H     2.012000000     2.132000000     5.796000000
O    -0.415000000     1.064000000    -7.962000000
H     0.429000000     0.636000000    -7.816000000
H    -0.192000000     1.974000000    -8.156000000
O     0.369000000    -7.418000000     0.687000000
H     0.242000000    -6.561000000     0.279000000
H    -0.385000000    -7.521000000     1.267000000
O     2.598000000    -4.080000000    -0.587000000
H     3.127000000    -4.828000000    -0.862000000
H     2.625000000    -3.480000000    -1.333000000
O    -4.104000000    -0.708000000     1.536000000
H    -4.285000000    -0.021000000     2.178000000
H    -3.402000000    -1.225000000     1.931000000
O     4.725000000     0.660000000     0.785000000
H     3.959000000     0.094000000     0.686000000
H     5.236000000     0.253000000     1.484000000
O     4.619000000    -2.079000000    -6.222000000
H     4.531000000    -2.831000000    -5.637000000
H     4.480000000    -1.319000000    -5.658000000
O     5.073000000     2.781000000    -0.820000000
H     5.073000000     2.072000000    -0.176000000
H     4.319000000     3.321000000    -0.582000000
O    -3.778000000    -5.747000000     4.305000000
H    -4.126000000    -5.849000000     5.191000000
H    -3.532000000    -4.823000000     4.250000000
O    -0.629000000     2.840000000     4.613000000
H     0.220000000     3.046000000     5.003000000
H    -0.507000000     1.978000000     4.215000000
O     0.622000000     4.078000000     2.093000000
H     0.670000000     4.717000000     2.805000000
H     1.446000000     3.595000000     2.150000000
O    -3.950000000    -5.443000000     0.533000000
H    -4.287000000    -5.937000000     1.280000000
H    -3.341000000    -4.813000000     0.917000000
O     3.265000000     5.824000000    -2.984000000
H     4.132000000     6.115000000    -3.264000000
H     3.295000000     4.870000000    -3.066000000
O    -3.644000000    -4.436000000    -3.488000000
H    -3.212000000    -3.601000000    -3.310000000
H    -4.470000000    -4.385000000    -3.008000000
O     0.450000000     3.126000000    -5.847000000
H    -0.144000000     2.446000000    -5.529000000
H     1.076000000     3.250000000    -5.134000000
O    -0.430000000    -2.010000000     5.494000000
H    -0.460000000    -1.276000000     4.881000000
H     0.290000000    -1.798000000     6.087000000
O     3.125000000    -1.720000000     5.802000000
H     3.991000000    -1.433000000     5.512000000
H     3.163000000    -2.676000000     5.761000000
O    -3.407000000     4.443000000    -3.148000000
H    -4.301000000     4.105000000    -3.184000000
H    -2.860000000     3.663000000    -3.053000000
O    -3.960000000     1.391000000     3.333000000
H    -3.667000000     0.819000000     4.042000000
H    -4.701000000     1.871000000     3.703000000
O    -1.828000000     2.288000000    -2.300000000
H    -2.201000000     1.533000000    -1.845000000
H    -1.718000000     2.950000000    -1.618000000
O    -2.822000000     2.744000000     6.514000000
H    -2.365000000     2.809000000     5.675000000
H    -3.303000000     1.918000000     6.461000000
O     1.928000000    -2.641000000    -3.360000000
H     1.233000000    -2.162000000    -3.812000000
H     1.679000000    -3.561000000    -3.446000000
