158
-3047.70504
C    -0.657000000    -1.291000000     0.197000000
H    -1.302000000    -2.164000000     0.244000000
C    -0.199000000    -0.857000000    -1.025000000
H    -0.470000000    -1.451000000    -1.894000000
C     0.520000000     0.357000000    -1.093000000
H     0.661000000     0.774000000    -2.097000000
C     0.753000000     1.079000000     0.119000000
H     1.273000000     2.033000000     0.084000000
C     0.327000000     0.546000000     1.332000000
H     0.439000000     1.167000000     2.217000000
C    -0.447000000    -0.653000000     1.387000000
C    -1.192000000    -0.843000000     2.667000000
O    -2.016000000    -1.739000000     2.685000000
O    -1.156000000    -0.079000000     3.584000000
O     3.232000000     1.486000000     3.340000000
H     3.755000000     1.872000000     4.043000000
H     2.691000000     0.828000000     3.777000000
O     3.993000000     1.282000000     0.792000000
H     4.944000000     1.190000000     0.857000000
H     3.682000000     1.186000000     1.692000000
O    -1.558000000    -1.753000000     5.808000000
H    -1.897000000    -2.582000000     5.468000000
H    -1.583000000    -1.159000000     5.058000000
O     3.479000000    -2.903000000     3.254000000
H     2.972000000    -3.684000000     3.033000000
H     3.186000000    -2.241000000     2.627000000
O    -4.274000000     2.489000000    -2.355000000
H    -4.668000000     3.244000000    -1.917000000
H    -3.333000000     2.594000000    -2.212000000
O    -0.835000000     4.586000000     4.430000000
H    -0.441000000     3.883000000     4.946000000
H    -1.644000000     4.208000000     4.087000000
O     2.739000000    -1.454000000     0.633000000
H     1.890000000    -1.740000000     0.297000000
H     2.646000000    -0.508000000     0.745000000
O     1.519000000    -0.284000000     4.920000000
H     0.674000000    -0.556000000     4.562000000
H     1.452000000    -0.465000000     5.857000000
O    -1.728000000     2.300000000    -0.750000000
H    -1.926000000     2.929000000    -0.056000000
H    -1.156000000     1.656000000    -0.333000000
O    -0.788000000     4.972000000    -5.008000000
H    -1.528000000     5.065000000    -4.408000000
H    -0.918000000     4.116000000    -5.416000000
O    -0.769000000     1.767000000     5.540000000
H    -0.977000000     1.399000000     4.681000000
H     0.094000000     1.410000000     5.750000000
O     1.636000000     2.927000000    -4.719000000
H     0.722000000     2.645000000    -4.743000000
H     1.889000000     2.843000000    -3.800000000
O    -4.103000000    -2.661000000     4.184000000
H    -3.366000000    -2.210000000     3.771000000
H    -3.698000000    -3.359000000     4.698000000
O    -0.644000000    -3.602000000    -5.447000000
H    -0.065000000    -2.852000000    -5.579000000
H    -1.526000000    -3.246000000    -5.557000000
O    -3.625000000    -1.727000000    -4.174000000
H    -4.181000000    -2.505000000    -4.124000000
H    -4.123000000    -1.048000000    -3.718000000
O     5.382000000     1.492000000    -4.867000000
H     6.226000000     1.065000000    -5.012000000
H     5.348000000     1.641000000    -3.922000000
O     3.686000000     2.837000000    -6.450000000
H     2.801000000     2.758000000    -6.094000000
H     4.203000000     2.206000000    -5.949000000
O     1.494000000    -4.065000000     1.412000000
H     1.491000000    -3.956000000     0.461000000
H     1.955000000    -4.891000000     1.557000000
O     4.047000000     5.885000000     0.559000000
H     3.865000000     5.480000000     1.407000000
H     3.194000000     5.934000000     0.128000000
O    -0.133000000     4.449000000    -1.829000000
H    -0.845000000     3.833000000    -1.659000000
H    -0.528000000     5.125000000    -2.380000000
O     3.985000000    -0.178000000    -2.588000000
H     4.542000000    -0.585000000    -1.924000000
H     3.954000000     0.746000000    -2.340000000
O    -1.965000000     2.318000000     8.174000000
H    -2.878000000     2.462000000     7.926000000
H    -1.527000000     2.091000000     7.354000000
O    -3.701000000    -4.578000000    -1.238000000
H    -3.156000000    -4.264000000    -0.517000000
H    -4.431000000    -5.026000000    -0.810000000
O    -2.117000000    -6.211000000     3.420000000
H    -2.920000000    -5.927000000     2.983000000
H    -1.535000000    -5.453000000     3.369000000
O    -2.565000000    -4.421000000     5.463000000
H    -3.228000000    -4.798000000     6.042000000
H    -2.095000000    -5.178000000     5.113000000
O    -5.216000000    -1.279000000     6.239000000
H    -4.535000000    -1.803000000     5.816000000
H    -5.962000000    -1.873000000     6.317000000
O     1.671000000    -4.411000000    -1.377000000
H     1.981000000    -3.570000000    -1.711000000
H     1.305000000    -4.853000000    -2.143000000
O    -4.135000000     0.481000000     2.818000000
H    -4.011000000     0.524000000     1.870000000
H    -3.396000000    -0.040000000     3.132000000
O     4.155000000    -1.091000000    -6.056000000
H     4.984000000    -1.551000000    -5.922000000
H     4.311000000    -0.211000000    -5.713000000
O     0.030000000    -6.626000000    -0.696000000
H     0.602000000    -7.185000000    -0.169000000
H     0.134000000    -5.753000000    -0.318000000
O     1.125000000     6.105000000    -0.151000000
H     0.444000000     6.721000000     0.119000000
H     0.655000000     5.420000000    -0.627000000
O     2.648000000    -2.478000000    -3.365000000
H     2.027000000    -2.358000000    -4.083000000
H     3.080000000    -1.628000000    -3.279000000
O     3.132000000     4.333000000     2.790000000
H     3.133000000     4.432000000     3.742000000
H     2.887000000     3.420000000     2.644000000
O     0.801000000    -5.534000000    -4.051000000
H     1.355000000    -5.832000000    -4.772000000
H     0.146000000    -4.974000000    -4.468000000
O    -4.825000000    -1.792000000    -0.935000000
H    -4.316000000    -2.266000000    -1.593000000
H    -5.682000000    -2.220000000    -0.941000000
O    -1.978000000     4.340000000     1.062000000
H    -2.163000000     5.269000000     1.199000000
H    -2.497000000     3.891000000     1.729000000
O    -0.655000000    -4.237000000     3.048000000
H    -1.061000000    -3.381000000     2.908000000
H     0.089000000    -4.250000000     2.446000000
O     6.343000000     1.917000000    -1.804000000
H     6.944000000     2.562000000    -2.177000000
H     6.279000000     2.157000000    -0.879000000
O    -3.912000000     0.645000000     0.171000000
H    -3.582000000     1.170000000    -0.559000000
H    -4.342000000    -0.102000000    -0.246000000
O     2.531000000     3.236000000    -2.248000000
H     1.642000000     3.575000000    -2.140000000
H     3.080000000     3.835000000    -1.742000000
O    -4.960000000     1.498000000     5.268000000
H    -5.448000000     0.720000000     5.537000000
H    -4.675000000     1.305000000     4.375000000
O    -1.659000000    -0.779000000    -5.921000000
H    -1.847000000    -0.508000000    -6.819000000
H    -2.484000000    -1.148000000    -5.605000000
O    -2.964000000     3.112000000     3.653000000
H    -3.009000000     2.191000000     3.395000000
H    -3.879000000     3.379000000     3.743000000
O    -4.648000000    -5.311000000     2.359000000
H    -5.561000000    -5.258000000     2.641000000
H    -4.478000000    -4.468000000     1.939000000
O    -0.840000000     1.785000000    -4.614000000
H    -1.305000000     1.113000000    -5.113000000
H    -0.702000000     1.391000000    -3.753000000
O     3.977000000     4.905000000    -4.589000000
H     3.989000000     4.090000000    -5.091000000
H     3.054000000     5.044000000    -4.378000000
O     1.187000000    -1.586000000    -5.847000000
H     2.071000000    -1.261000000    -6.019000000
H     0.624000000    -0.820000000    -5.959000000
O    -3.580000000    -3.069000000     1.195000000
H    -2.908000000    -2.540000000     1.625000000
H    -3.971000000    -2.481000000     0.549000000
