158
-3028.49414
C    -1.067000000    -0.974000000    -0.293000000
H    -1.936000000    -1.622000000    -0.373000000
C    -1.114000000     0.347000000    -0.583000000
H    -2.025000000     0.805000000    -0.960000000
C    -0.008000000     1.111000000    -0.458000000
H     0.029000000     2.173000000    -0.773000000
C     1.076000000     0.587000000     0.092000000
H     1.955000000     1.215000000     0.212000000
C     1.176000000    -0.764000000     0.432000000
H     2.082000000    -1.227000000     0.814000000
C     0.072000000    -1.585000000     0.217000000
C    -0.016000000    -2.833000000     1.015000000
O     0.608000000    -2.888000000     2.039000000
O    -0.736000000    -3.720000000     0.699000000
O    -3.494000000     3.700000000    -4.285000000
H    -3.826000000     4.268000000    -4.981000000
H    -2.575000000     3.950000000    -4.190000000
O     2.423000000    -7.507000000    -1.207000000
H     2.812000000    -8.232000000    -0.718000000
H     2.500000000    -6.754000000    -0.621000000
O     0.337000000    -6.396000000    -2.685000000
H    -0.284000000    -7.051000000    -2.366000000
H     1.180000000    -6.669000000    -2.324000000
O     3.430000000    -3.987000000     2.411000000
H     2.579000000    -3.972000000     1.973000000
H     3.670000000    -3.064000000     2.501000000
O     0.157000000     2.571000000    -4.167000000
H     0.133000000     3.071000000    -3.350000000
H     0.526000000     3.178000000    -4.808000000
O     4.396000000     1.272000000     1.186000000
H     3.628000000     1.634000000     1.627000000
H     5.130000000     1.787000000     1.522000000
O    -0.270000000    -6.824000000     5.232000000
H    -1.185000000    -6.930000000     5.492000000
H    -0.249000000    -5.990000000     4.763000000
O     3.737000000     1.032000000    -3.796000000
H     3.561000000     1.973000000    -3.758000000
H     4.542000000     0.919000000    -3.290000000
O    -5.597000000     0.206000000     0.598000000
H    -5.426000000    -0.288000000    -0.204000000
H    -6.358000000    -0.225000000     0.987000000
O     0.178000000     2.507000000     2.311000000
H     0.233000000     1.562000000     2.166000000
H    -0.414000000     2.820000000     1.627000000
O    -2.438000000     6.102000000     1.657000000
H    -2.653000000     6.071000000     2.590000000
H    -2.565000000     7.019000000     1.412000000
O    -1.945000000     3.578000000    -1.795000000
H    -2.147000000     2.643000000    -1.847000000
H    -1.717000000     3.723000000    -0.877000000
O     4.183000000     5.795000000     0.898000000
H     3.493000000     6.100000000     0.308000000
H     3.727000000     5.251000000     1.540000000
O     1.767000000    -0.791000000    -3.072000000
H     2.206000000     0.059000000    -3.120000000
H     1.020000000    -0.642000000    -2.492000000
O     1.968000000    -1.813000000     4.058000000
H     1.383000000    -2.167000000     3.389000000
H     1.540000000    -1.007000000     4.348000000
O     1.340000000    -5.820000000     0.776000000
H     0.787000000    -6.600000000     0.739000000
H     0.729000000    -5.089000000     0.689000000
O    -4.302000000     2.610000000    -0.089000000
H    -4.427000000     2.861000000    -1.004000000
H    -4.770000000     1.780000000    -0.002000000
O    -2.455000000     1.264000000    -3.643000000
H    -1.553000000     1.212000000    -3.961000000
H    -2.772000000     2.110000000    -3.958000000
O     4.398000000    -6.308000000     1.321000000
H     3.721000000    -6.979000000     1.403000000
H     4.058000000    -5.562000000     1.815000000
O    -5.463000000     3.429000000    -2.601000000
H    -4.778000000     3.491000000    -3.266000000
H    -5.932000000     2.622000000    -2.814000000
O     2.307000000    -7.867000000     2.953000000
H     2.151000000    -8.069000000     3.875000000
H     2.088000000    -6.939000000     2.870000000
O     1.957000000     6.512000000    -3.957000000
H     1.596000000     5.941000000    -4.636000000
H     2.812000000     6.776000000    -4.296000000
O    -6.315000000     1.174000000    -3.201000000
H    -7.091000000     1.034000000    -2.658000000
H    -5.707000000     0.485000000    -2.932000000
O    -4.643000000    -3.988000000    -2.299000000
H    -3.884000000    -3.951000000    -1.716000000
H    -4.270000000    -4.128000000    -3.169000000
O     5.085000000    -1.305000000     1.730000000
H     4.525000000    -0.545000000     1.889000000
H     5.968000000    -0.942000000     1.660000000
O    -1.558000000    -8.058000000    -1.554000000
H    -1.762000000    -7.703000000    -0.689000000
H    -1.208000000    -8.931000000    -1.379000000
O    -0.562000000    -4.283000000     4.058000000
H    -0.192000000    -3.941000000     3.244000000
H    -1.170000000    -3.603000000     4.349000000
O    -5.596000000    -3.639000000     0.823000000
H    -6.338000000    -3.270000000     1.303000000
H    -5.977000000    -3.962000000     0.006000000
O    -0.575000000     6.466000000    -0.514000000
H    -1.255000000     6.896000000    -1.033000000
H    -1.007000000     6.245000000     0.311000000
O     4.352000000    -0.320000000    -1.009000000
H     3.461000000    -0.182000000    -1.330000000
H     4.365000000     0.104000000    -0.151000000
O    -2.521000000    -5.418000000     2.047000000
H    -1.869000000    -5.158000000     2.697000000
H    -2.424000000    -4.780000000     1.341000000
O    -1.999000000    -1.541000000     4.234000000
H    -2.373000000    -1.086000000     3.480000000
H    -1.762000000    -0.841000000     4.843000000
O    -5.460000000    -1.463000000    -1.468000000
H    -5.063000000    -1.735000000    -2.296000000
H    -5.322000000    -2.205000000    -0.881000000
O    -0.519000000    -4.008000000    -3.371000000
H     0.132000000    -3.753000000    -2.717000000
H    -0.588000000    -4.959000000    -3.282000000
O    -2.128000000     3.566000000     1.106000000
H    -2.917000000     3.047000000     0.946000000
H    -2.454000000     4.394000000     1.459000000
O    -4.000000000    -1.164000000    -3.917000000
H    -3.249000000    -0.623000000    -3.675000000
H    -4.174000000    -0.938000000    -4.830000000
O     4.759000000    -2.938000000    -0.698000000
H     4.989000000    -2.991000000     0.230000000
H     4.414000000    -2.052000000    -0.809000000
O    -2.333000000    -4.333000000    -1.202000000
H    -1.738000000    -4.226000000    -0.459000000
H    -1.764000000    -4.300000000    -1.971000000
O     2.142000000     6.429000000    -1.040000000
H     2.320000000     6.417000000    -1.980000000
H     1.188000000     6.387000000    -0.976000000
O     3.275000000     3.658000000    -3.221000000
H     2.889000000     4.529000000    -3.304000000
H     3.904000000     3.741000000    -2.505000000
O     1.310000000     7.944000000     1.883000000
H     0.886000000     7.998000000     1.026000000
H     1.384000000     7.005000000     2.055000000
O    -1.038000000    -7.837000000     1.689000000
H    -1.765000000    -7.214000000     1.665000000
H    -0.771000000    -7.858000000     2.608000000
O     2.551000000    -5.140000000     4.668000000
H     2.890000000    -4.830000000     3.829000000
H     1.703000000    -4.704000000     4.759000000
O     4.431000000    -0.600000000     4.520000000
H     4.978000000    -1.338000000     4.790000000
H     3.569000000    -0.987000000     4.363000000
O    -3.989000000    -0.938000000     2.398000000
H    -4.486000000    -0.348000000     1.831000000
H    -4.304000000    -1.813000000     2.168000000
O    -1.158000000     3.760000000     4.505000000
H    -0.716000000     3.236000000     3.837000000
H    -1.181000000     4.644000000     4.139000000
O     1.847000000     4.900000000     2.601000000
H     1.359000000     5.334000000     3.301000000
H     1.336000000     4.116000000     2.402000000
O     6.881000000    -0.697000000    -1.662000000
H     5.933000000    -0.733000000    -1.536000000
H     7.060000000    -1.368000000    -2.320000000
