158
-3024.64671
C    -0.646000000    -1.341000000     0.206000000
H    -0.989000000    -2.372000000     0.171000000
C     0.181000000    -0.955000000    -0.901000000
H     0.443000000    -1.603000000    -1.733000000
C     0.639000000     0.381000000    -1.019000000
H     1.252000000     0.679000000    -1.865000000
C     0.279000000     1.290000000    -0.042000000
H     0.419000000     2.348000000    -0.251000000
C    -0.355000000     0.834000000     1.118000000
H    -0.595000000     1.631000000     1.816000000
C    -0.903000000    -0.454000000     1.220000000
C    -1.774000000    -0.867000000     2.353000000
O    -2.265000000    -1.997000000     2.386000000
O    -1.933000000    -0.151000000     3.280000000
O    -2.797000000     3.841000000    -4.683000000
H    -2.241000000     3.267000000    -4.157000000
H    -3.497000000     3.271000000    -5.002000000
O    -1.584000000    -3.629000000     6.651000000
H    -1.421000000    -3.389000000     5.739000000
H    -0.966000000    -3.098000000     7.153000000
O     4.585000000    -1.579000000    -2.208000000
H     5.524000000    -1.736000000    -2.110000000
H     4.343000000    -1.079000000    -1.428000000
O     0.154000000     4.606000000    -3.655000000
H    -0.294000000     3.760000000    -3.635000000
H     0.907000000     4.465000000    -4.228000000
O     4.368000000     3.613000000    -3.602000000
H     5.163000000     3.890000000    -4.057000000
H     4.277000000     2.686000000    -3.820000000
O     3.526000000    -3.831000000    -3.039000000
H     3.902000000    -3.904000000    -3.917000000
H     3.752000000    -2.946000000    -2.755000000
O     0.453000000     4.764000000     2.725000000
H    -0.464000000     5.037000000     2.751000000
H     0.620000000     4.401000000     3.595000000
O    -2.028000000    -0.137000000    -5.594000000
H    -2.681000000     0.248000000    -5.010000000
H    -2.492000000    -0.846000000    -6.038000000
O     0.219000000    -5.392000000     0.059000000
H    -0.167000000    -6.065000000     0.620000000
H    -0.450000000    -5.217000000    -0.602000000
O    -3.657000000     1.767000000     3.535000000
H    -3.417000000     2.150000000     2.691000000
H    -3.223000000     0.915000000     3.545000000
O    -4.579000000    -1.389000000     7.223000000
H    -4.338000000    -1.476000000     6.301000000
H    -4.239000000    -2.183000000     7.635000000
O     2.136000000    -1.230000000     1.726000000
H     1.433000000    -0.963000000     1.134000000
H     2.474000000    -0.408000000     2.083000000
O     3.944000000     0.828000000    -3.613000000
H     3.277000000     0.395000000    -4.145000000
H     4.480000000     0.112000000    -3.271000000
O    -0.049000000     0.032000000     5.245000000
H    -0.802000000     0.032000000     4.653000000
H     0.483000000    -0.709000000     4.955000000
O    -2.749000000    -1.582000000    -2.789000000
H    -3.631000000    -1.931000000    -2.918000000
H    -2.795000000    -0.686000000    -3.123000000
O    -4.090000000    -1.366000000     4.559000000
H    -3.347000000    -1.083000000     4.026000000
H    -4.832000000    -0.865000000     4.220000000
O     2.324000000     4.475000000    -5.362000000
H     3.125000000     4.202000000    -4.915000000
H     2.430000000     5.418000000    -5.488000000
O     1.937000000     1.958000000    -6.180000000
H     1.942000000     2.916000000    -6.174000000
H     1.535000000     1.716000000    -5.346000000
O    -1.211000000    -4.621000000    -2.658000000
H    -0.302000000    -4.384000000    -2.843000000
H    -1.689000000    -3.793000000    -2.705000000
O     3.007000000     4.317000000    -0.931000000
H     3.211000000     3.594000000    -1.524000000
H     3.766000000     4.374000000    -0.352000000
O    -3.403000000     3.172000000     0.898000000
H    -3.349000000     2.572000000     0.154000000
H    -2.880000000     3.929000000     0.634000000
O     0.713000000     2.481000000     4.575000000
H     0.022000000     3.011000000     4.972000000
H     0.518000000     1.586000000     4.855000000
O    -4.042000000    -3.831000000     3.015000000
H    -4.413000000    -3.310000000     3.728000000
H    -3.282000000    -3.328000000     2.722000000
O     1.717000000    -2.852000000    -5.360000000
H     1.566000000    -3.645000000    -4.845000000
H     2.658000000    -2.694000000    -5.286000000
O    -1.904000000    -6.713000000     1.166000000
H    -2.505000000    -6.379000000     1.832000000
H    -1.843000000    -7.651000000     1.347000000
O     2.571000000     1.397000000     2.826000000
H     3.102000000     1.259000000     3.611000000
H     1.746000000     1.756000000     3.155000000
O     2.983000000    -5.010000000     0.371000000
H     2.076000000    -5.199000000     0.129000000
H     3.505000000    -5.562000000    -0.212000000
O    -3.987000000     4.887000000     4.063000000
H    -3.514000000     5.072000000     3.252000000
H    -4.024000000     3.931000000     4.106000000
O    -1.967000000     3.178000000     5.346000000
H    -2.756000000     2.961000000     4.849000000
H    -2.294000000     3.575000000     6.154000000
O    -1.080000000    -6.355000000     4.129000000
H    -0.128000000    -6.409000000     4.209000000
H    -1.265000000    -5.416000000     4.097000000
O    -6.802000000    -2.076000000     1.836000000
H    -5.885000000    -2.307000000     1.694000000
H    -7.295000000    -2.775000000     1.406000000
O     1.474000000     6.050000000     0.464000000
H     1.872000000     5.294000000     0.032000000
H     1.103000000     5.695000000     1.272000000
O    -2.832000000     5.888000000    -0.297000000
H    -2.079000000     6.476000000    -0.355000000
H    -3.119000000     5.776000000    -1.203000000
O    -6.133000000     2.270000000     4.698000000
H    -6.602000000     1.466000000     4.472000000
H    -5.254000000     2.143000000     4.340000000
O     1.060000000    -3.985000000     2.267000000
H     0.699000000    -4.383000000     1.475000000
H     1.810000000    -3.476000000     1.959000000
O     3.981000000     0.579000000    -0.356000000
H     3.417000000     0.915000000    -1.053000000
H     3.417000000     0.553000000     0.417000000
O    -1.121000000    -3.703000000     3.876000000
H    -1.688000000    -3.074000000     3.428000000
H    -0.337000000    -3.749000000     3.329000000
O     4.530000000    -2.250000000     3.031000000
H     4.841000000    -1.543000000     3.596000000
H     3.895000000    -1.831000000     2.450000000
O    -0.661000000     2.031000000    -3.462000000
H    -1.027000000     1.700000000    -2.642000000
H    -0.136000000     1.306000000    -3.801000000
O     6.813000000     1.423000000    -1.512000000
H     6.093000000     1.217000000    -0.915000000
H     7.040000000     0.584000000    -1.913000000
O    -2.277000000     0.313000000     7.687000000
H    -2.991000000    -0.279000000     7.921000000
H    -1.989000000     0.013000000     6.825000000
O     3.288000000     7.325000000    -1.845000000
H     2.827000000     6.507000000    -2.032000000
H     2.919000000     7.623000000    -1.013000000
O     0.485000000    -0.221000000    -4.562000000
H     0.826000000    -0.994000000    -5.013000000
H    -0.306000000     0.010000000    -5.049000000
O    -3.852000000     1.434000000    -1.533000000
H    -3.756000000     1.213000000    -2.459000000
H    -4.543000000     0.851000000    -1.218000000
O    -6.165000000    -0.106000000     3.524000000
H    -6.647000000    -0.869000000     3.204000000
H    -6.040000000     0.441000000     2.748000000
O    -4.866000000    -5.978000000     1.793000000
H    -4.544000000    -5.232000000     2.298000000
H    -5.792000000    -6.043000000     2.026000000
O    -4.180000000    -4.957000000     5.934000000
H    -3.855000000    -5.695000000     5.419000000
H    -3.393000000    -4.463000000     6.167000000
O    -4.014000000    -1.743000000    -0.247000000
H    -3.874000000    -2.552000000     0.244000000
H    -3.132000000    -1.416000000    -0.426000000
