158
-2995.60789
C     0.897000000    -1.004000000     0.585000000
H     1.650000000    -1.505000000     1.189000000
C     1.118000000     0.344000000     0.317000000
H     2.078000000     0.769000000     0.598000000
C     0.230000000     1.171000000    -0.305000000
H     0.430000000     2.191000000    -0.444000000
C    -0.993000000     0.687000000    -0.617000000
H    -1.648000000     1.438000000    -1.052000000
C    -1.272000000    -0.672000000    -0.429000000
H    -2.223000000    -1.112000000    -0.718000000
C    -0.341000000    -1.568000000     0.215000000
C    -0.652000000    -2.992000000     0.681000000
O     0.274000000    -3.651000000     0.978000000
O    -1.750000000    -3.453000000     0.815000000
O    -1.165000000     5.445000000    -2.882000000
H    -1.952000000     4.909000000    -2.782000000
H    -1.126000000     5.964000000    -2.078000000
O     0.941000000    -2.915000000    -3.835000000
H     1.728000000    -3.448000000    -3.949000000
H     0.223000000    -3.487000000    -4.106000000
O     1.772000000    -2.106000000     5.836000000
H     1.164000000    -2.387000000     5.152000000
H     1.289000000    -1.441000000     6.328000000
O    -1.893000000    -1.975000000     3.893000000
H    -2.147000000    -1.670000000     4.764000000
H    -1.563000000    -1.192000000     3.452000000
O     2.345000000     1.574000000    -4.961000000
H     2.520000000     0.635000000    -5.016000000
H     1.619000000     1.718000000    -5.568000000
O    -5.129000000    -1.984000000    -1.173000000
H    -5.889000000    -1.770000000    -1.713000000
H    -5.085000000    -2.940000000    -1.188000000
O    -1.268000000     6.706000000    -0.578000000
H    -2.153000000     6.656000000    -0.216000000
H    -1.047000000     7.637000000    -0.541000000
O     1.153000000    -5.880000000     0.125000000
H     0.766000000    -5.023000000     0.301000000
H     0.503000000    -6.331000000    -0.413000000
O     3.950000000     4.770000000    -2.960000000
H     3.253000000     4.116000000    -3.021000000
H     3.520000000     5.547000000    -2.604000000
O     6.159000000     4.557000000    -1.389000000
H     5.415000000     4.685000000    -1.977000000
H     6.052000000     3.666000000    -1.057000000
O     5.181000000     1.445000000    -4.422000000
H     4.525000000     2.096000000    -4.176000000
H     4.672000000     0.671000000    -4.663000000
O     4.383000000    -2.914000000     3.452000000
H     3.921000000    -3.655000000     3.062000000
H     4.525000000    -2.310000000     2.722000000
O     0.963000000     5.014000000    -4.828000000
H     0.205000000     5.334000000    -4.339000000
H     0.933000000     4.063000000    -4.721000000
O    -5.364000000    -1.647000000     2.888000000
H    -4.911000000    -2.439000000     2.596000000
H    -5.083000000    -0.970000000     2.273000000
O     6.017000000     1.238000000    -1.260000000
H     5.175000000     0.794000000    -1.360000000
H     6.486000000     1.050000000    -2.073000000
O     0.646000000    -3.553000000     3.658000000
H     0.758000000    -3.205000000     2.774000000
H    -0.296000000    -3.701000000     3.739000000
O    -1.465000000    -5.837000000     2.327000000
H    -0.596000000    -6.236000000     2.282000000
H    -1.411000000    -5.079000000     1.745000000
O    -1.121000000     0.519000000     2.622000000
H    -1.384000000     0.316000000     1.724000000
H    -0.286000000     0.978000000     2.529000000
O    -3.886000000     3.474000000    -2.548000000
H    -4.294000000     3.281000000    -3.392000000
H    -4.299000000     2.862000000    -1.937000000
O     0.733000000     3.519000000     4.382000000
H     0.176000000     3.571000000     3.605000000
H     0.391000000     4.194000000     4.968000000
O     3.681000000     6.598000000     2.867000000
H     4.328000000     5.950000000     3.147000000
H     2.974000000     6.080000000     2.482000000
O    -3.050000000    -0.373000000    -3.120000000
H    -2.391000000    -1.026000000    -2.885000000
H    -3.838000000    -0.649000000    -2.652000000
O    -3.641000000    -3.787000000     2.599000000
H    -3.047000000    -3.415000000     1.947000000
H    -3.207000000    -3.627000000     3.437000000
O     3.326000000    -3.591000000    -0.826000000
H     3.020000000    -4.388000000    -1.257000000
H     2.636000000    -3.380000000    -0.196000000
O    -2.343000000    -1.963000000    -5.643000000
H    -1.992000000    -2.475000000    -6.371000000
H    -2.152000000    -2.490000000    -4.866000000
O    -2.361000000    -6.449000000     5.169000000
H    -1.824000000    -5.888000000     5.729000000
H    -2.281000000    -6.064000000     4.297000000
O    -2.829000000     3.371000000     0.266000000
H    -2.861000000     3.311000000    -0.689000000
H    -3.563000000     2.834000000     0.564000000
O     2.176000000     2.595000000    -2.406000000
H     2.334000000     2.240000000    -3.280000000
H     1.865000000     1.848000000    -1.896000000
O     1.612000000     0.789000000     4.087000000
H     1.542000000     1.740000000     4.163000000
H     2.506000000     0.638000000     3.781000000
O     3.921000000     3.638000000     1.875000000
H     4.636000000     4.214000000     1.606000000
H     3.167000000     4.219000000     1.970000000
O     1.469000000     5.163000000     1.798000000
H     1.091000000     6.035000000     1.689000000
H     0.734000000     4.616000000     2.076000000
O    -2.556000000    -7.834000000     1.045000000
H    -3.375000000    -8.047000000     1.492000000
H    -2.241000000    -7.045000000     1.486000000
O     5.271000000    -4.685000000     0.531000000
H     5.792000000    -4.122000000     1.103000000
H     4.805000000    -4.077000000    -0.043000000
O    -3.233000000     1.876000000     4.046000000
H    -3.915000000     2.092000000     3.409000000
H    -2.518000000     1.521000000     3.519000000
O     5.231000000    -1.223000000     1.151000000
H     4.659000000    -1.253000000     0.384000000
H     5.115000000    -0.339000000     1.501000000
O     3.996000000    -0.748000000    -1.890000000
H     4.265000000    -1.667000000    -1.870000000
H     3.094000000    -0.769000000    -2.208000000
O     4.057000000     1.006000000     2.874000000
H     4.481000000     1.007000000     3.732000000
H     4.126000000     1.912000000     2.572000000
O    -2.115000000    -3.078000000    -2.669000000
H    -2.424000000    -3.407000000    -1.825000000
H    -1.808000000    -3.858000000    -3.132000000
O    -5.157000000    -5.555000000     1.408000000
H    -4.753000000    -5.193000000     0.619000000
H    -4.825000000    -5.010000000     2.120000000
O     2.781000000    -5.176000000     2.651000000
H     1.880000000    -4.991000000     2.917000000
H     2.701000000    -5.881000000     2.008000000
O     1.194000000    -0.326000000    -2.488000000
H     0.470000000    -0.159000000    -1.885000000
H     1.021000000    -1.201000000    -2.834000000
O     1.939000000     5.830000000    -1.128000000
H     2.044000000     5.047000000    -0.587000000
H     0.992000000     5.949000000    -1.194000000
O    -0.904000000     0.912000000    -5.067000000
H    -0.355000000     0.131000000    -4.998000000
H    -1.624000000     0.754000000    -4.457000000
O    -4.756000000     0.210000000     0.417000000
H    -4.974000000    -0.640000000     0.036000000
H    -4.889000000     0.834000000    -0.296000000
O    -3.611000000    -4.522000000    -0.571000000
H    -3.169000000    -5.306000000    -0.897000000
H    -3.041000000    -4.199000000     0.127000000
O     2.962000000    -7.741000000     0.031000000
H     2.512000000    -8.130000000    -0.719000000
H     2.486000000    -6.929000000     0.202000000
O    -6.089000000     1.865000000    -1.194000000
H    -6.546000000     2.611000000    -1.583000000
H    -6.732000000     1.473000000    -0.603000000
O    -0.623000000     3.370000000     1.990000000
H    -0.434000000     2.729000000     1.305000000
H    -1.351000000     3.885000000     1.642000000
