158
-3039.07919
C    -0.295000000    -1.449000000     0.036000000
H    -0.362000000    -2.533000000     0.031000000
C     0.687000000    -0.865000000    -0.734000000
H     1.203000000    -1.373000000    -1.545000000
C     0.950000000     0.488000000    -0.596000000
H     1.543000000     0.984000000    -1.330000000
C     0.106000000     1.308000000     0.208000000
H     0.226000000     2.388000000     0.226000000
C    -0.955000000     0.715000000     0.900000000
H    -1.588000000     1.345000000     1.520000000
C    -1.125000000    -0.702000000     0.829000000
C    -2.338000000    -1.275000000     1.534000000
O    -2.536000000    -2.480000000     1.448000000
O    -2.958000000    -0.621000000     2.373000000
O    -5.534000000    -4.316000000     3.983000000
H    -5.157000000    -3.498000000     4.305000000
H    -5.519000000    -4.228000000     3.030000000
O    -1.261000000    -2.146000000    -3.161000000
H    -2.017000000    -2.482000000    -2.679000000
H    -0.599000000    -1.986000000    -2.488000000
O    -2.224000000     4.017000000    -4.349000000
H    -2.231000000     4.675000000    -3.654000000
H    -1.792000000     3.258000000    -3.957000000
O    -4.674000000     1.678000000    -0.971000000
H    -4.978000000     1.065000000    -0.302000000
H    -4.309000000     1.120000000    -1.658000000
O     0.807000000    -2.626000000    -5.554000000
H     1.691000000    -2.303000000    -5.725000000
H     0.737000000    -3.423000000    -6.079000000
O     2.048000000     4.530000000     0.608000000
H     3.000000000     4.452000000     0.540000000
H     1.910000000     5.266000000     1.205000000
O     4.927000000     1.551000000     2.423000000
H     5.047000000     1.041000000     3.224000000
H     4.200000000     2.141000000     2.622000000
O    -1.549000000    -4.979000000     0.383000000
H    -2.272000000    -4.415000000     0.659000000
H    -1.379000000    -5.538000000     1.141000000
O    -3.344000000     1.823000000     3.706000000
H    -3.534000000     2.259000000     2.876000000
H    -3.152000000     0.917000000     3.463000000
O     4.875000000     5.238000000     1.066000000
H     4.934000000     5.096000000     2.011000000
H     5.659000000     4.817000000     0.711000000
O     3.782000000    -0.376000000    -2.350000000
H     3.873000000    -0.867000000    -3.167000000
H     4.185000000     0.472000000    -2.535000000
O    -4.102000000     0.094000000     6.540000000
H    -3.168000000     0.302000000     6.509000000
H    -4.305000000     0.044000000     7.474000000
O     6.293000000    -1.473000000     0.016000000
H     5.396000000    -1.143000000     0.066000000
H     6.242000000    -2.361000000     0.371000000
O     1.698000000     3.230000000    -3.412000000
H     2.448000000     3.403000000    -2.842000000
H     1.068000000     2.779000000    -2.850000000
O     2.686000000     2.949000000     2.917000000
H     2.229000000     3.539000000     2.319000000
H     2.222000000     3.044000000     3.749000000
O     0.225000000     1.759000000    -5.899000000
H    -0.557000000     2.120000000    -6.317000000
H     0.438000000     2.387000000    -5.208000000
O    -2.404000000     4.000000000     5.022000000
H    -1.670000000     4.241000000     5.588000000
H    -2.529000000     3.064000000     5.179000000
O    -6.615000000     0.373000000     5.458000000
H    -6.998000000    -0.227000000     6.098000000
H    -5.671000000     0.305000000     5.601000000
O     3.938000000    -0.374000000    -5.466000000
H     3.408000000     0.065000000    -6.131000000
H     4.494000000    -0.976000000    -5.961000000
O    -1.920000000    -4.367000000     3.329000000
H    -1.957000000    -4.298000000     4.283000000
H    -2.075000000    -3.475000000     3.018000000
O    -3.162000000    -2.617000000    -1.281000000
H    -3.123000000    -2.522000000    -0.329000000
H    -3.256000000    -3.559000000    -1.424000000
O     5.184000000     1.532000000    -4.213000000
H     6.108000000     1.386000000    -4.013000000
H     4.913000000     0.745000000    -4.684000000
O     0.479000000    -5.985000000    -1.722000000
H    -0.277000000    -5.878000000    -1.144000000
H     0.165000000    -5.702000000    -2.581000000
O    -0.881000000     2.030000000    -2.678000000
H    -0.393000000     1.757000000    -1.901000000
H    -1.588000000     1.389000000    -2.754000000
O    -3.365000000     3.431000000     1.014000000
H    -2.420000000     3.583000000     1.040000000
H    -3.503000000     2.918000000     0.218000000
O     6.027000000    -2.515000000    -3.825000000
H     6.168000000    -3.340000000    -4.291000000
H     5.086000000    -2.356000000    -3.898000000
O    -5.114000000    -3.111000000     1.586000000
H    -5.703000000    -2.357000000     1.573000000
H    -4.239000000    -2.730000000     1.660000000
O    -0.558000000    -1.007000000     4.455000000
H     0.248000000    -0.635000000     4.096000000
H    -1.204000000    -0.898000000     3.757000000
O     3.297000000    -3.020000000    -3.612000000
H     2.695000000    -3.019000000    -2.868000000
H     3.399000000    -3.945000000    -3.837000000
O    -1.440000000     0.531000000     6.788000000
H    -0.816000000     0.253000000     6.117000000
H    -0.894000000     0.814000000     7.521000000
O    -6.267000000    -5.310000000     1.000000000
H    -7.117000000    -4.885000000     0.881000000
H    -5.628000000    -4.614000000     0.849000000
O     5.149000000     2.371000000    -0.197000000
H     6.049000000     2.167000000    -0.450000000
H     5.036000000     1.943000000     0.652000000
O     0.030000000    -3.031000000     6.137000000
H    -0.773000000    -3.436000000     6.467000000
H    -0.274000000    -2.293000000     5.608000000
O     3.498000000    -3.349000000     1.420000000
H     2.870000000    -4.036000000     1.196000000
H     3.092000000    -2.541000000     1.106000000
O     1.194000000     5.781000000    -2.144000000
H     1.083000000     5.007000000    -2.695000000
H     1.606000000     5.450000000    -1.346000000
O    -3.346000000    -6.912000000     3.745000000
H    -3.552000000    -6.005000000     3.518000000
H    -4.116000000    -7.409000000     3.468000000
O     1.597000000    -5.063000000     0.876000000
H     0.821000000    -4.648000000     1.254000000
H     1.270000000    -5.527000000     0.106000000
O     1.491000000     0.050000000     2.844000000
H     1.685000000     0.954000000     3.092000000
H     1.008000000     0.126000000     2.021000000
O     4.096000000     3.969000000    -1.970000000
H     4.456000000     4.845000000    -2.105000000
H     4.635000000     3.592000000    -1.275000000
O    -5.609000000    -1.570000000    -2.634000000
H    -4.719000000    -1.605000000    -2.286000000
H    -5.496000000    -1.584000000    -3.584000000
O    -3.813000000    -2.191000000     4.612000000
H    -3.636000000    -1.957000000     3.701000000
H    -3.964000000    -1.353000000     5.050000000
O     3.729000000    -0.804000000     0.233000000
H     3.242000000    -0.068000000     0.605000000
H     3.568000000    -0.746000000    -0.709000000
O    -2.867000000     0.202000000    -3.151000000
H    -3.279000000     0.352000000    -4.001000000
H    -2.393000000    -0.623000000    -3.257000000
O     3.593000000     3.755000000    -5.174000000
H     2.787000000     3.984000000    -4.711000000
H     4.084000000     3.220000000    -4.550000000
O    -0.350000000    -4.760000000    -4.015000000
H    -0.153000000    -3.870000000    -4.309000000
H    -1.292000000    -4.856000000    -4.158000000
O    -0.975000000     4.748000000     0.614000000
H    -1.349000000     5.628000000     0.667000000
H    -0.076000000     4.888000000     0.315000000
O    -7.521000000     0.177000000     2.834000000
H    -7.188000000     0.166000000     3.731000000
H    -8.146000000    -0.548000000     2.801000000
O    -5.250000000     0.055000000     1.213000000
H    -4.371000000    -0.021000000     1.583000000
H    -5.802000000     0.303000000     1.954000000
