158
-3043.80490
C     1.250000000    -0.306000000    -0.665000000
H     2.055000000    -0.433000000    -1.383000000
C     0.473000000     0.810000000    -0.798000000
H     0.605000000     1.475000000    -1.647000000
C    -0.607000000     1.080000000    -0.012000000
H    -1.102000000     1.976000000    -0.154000000
C    -1.015000000     0.122000000     0.896000000
H    -1.973000000     0.311000000     1.373000000
C    -0.274000000    -1.060000000     1.008000000
H    -0.477000000    -1.745000000     1.827000000
C     0.889000000    -1.290000000     0.290000000
C     1.583000000    -2.645000000     0.266000000
O     2.598000000    -2.764000000    -0.388000000
O     1.251000000    -3.588000000     0.982000000
O    -5.935000000     2.233000000     2.668000000
H    -5.166000000     2.784000000     2.816000000
H    -6.535000000     2.464000000     3.378000000
O    -1.913000000     3.910000000    -5.301000000
H    -2.382000000     4.306000000    -4.567000000
H    -1.858000000     4.608000000    -5.955000000
O     1.833000000    -4.194000000    -2.334000000
H     2.233000000    -3.756000000    -1.583000000
H     2.331000000    -5.005000000    -2.432000000
O    -0.792000000    -4.483000000    -1.952000000
H     0.112000000    -4.254000000    -2.165000000
H    -1.069000000    -5.055000000    -2.667000000
O    -5.052000000     2.764000000    -1.938000000
H    -4.225000000     2.362000000    -2.204000000
H    -5.597000000     2.028000000    -1.659000000
O     2.418000000    -5.727000000     0.716000000
H     1.672000000    -6.272000000     0.464000000
H     2.043000000    -4.857000000     0.855000000
O     2.280000000    -7.558000000     3.015000000
H     2.250000000    -7.012000000     2.230000000
H     1.405000000    -7.480000000     3.395000000
O    -5.073000000    -0.041000000    -0.575000000
H    -4.191000000     0.150000000    -0.893000000
H    -4.939000000    -0.639000000     0.160000000
O    -4.919000000     5.350000000     0.171000000
H    -5.011000000     5.157000000    -0.762000000
H    -5.559000000     6.043000000     0.336000000
O    -2.038000000    -5.256000000     0.241000000
H    -2.775000000    -5.624000000    -0.247000000
H    -1.473000000    -4.873000000    -0.430000000
O     3.833000000    -6.130000000    -3.134000000
H     4.138000000    -5.930000000    -2.249000000
H     4.623000000    -6.098000000    -3.673000000
O    -0.812000000     0.450000000    -6.181000000
H    -0.619000000    -0.116000000    -5.433000000
H    -1.704000000     0.759000000    -6.024000000
O     2.954000000     4.797000000    -3.601000000
H     2.107000000     5.158000000    -3.339000000
H     2.773000000     4.324000000    -4.413000000
O     1.915000000    -0.150000000     3.574000000
H     1.466000000     0.542000000     3.088000000
H     1.260000000    -0.467000000     4.196000000
O    -0.328000000    -0.187000000    -3.501000000
H    -0.005000000    -1.054000000    -3.744000000
H     0.077000000    -0.008000000    -2.653000000
O    -2.959000000     5.391000000    -3.243000000
H    -2.651000000     5.596000000    -2.360000000
H    -3.913000000     5.440000000    -3.181000000
O    -3.035000000     0.892000000    -2.508000000
H    -3.548000000     0.185000000    -2.900000000
H    -2.135000000     0.563000000    -2.509000000
O     0.473000000     6.450000000     1.072000000
H    -0.457000000     6.660000000     1.156000000
H     0.801000000     7.072000000     0.422000000
O     2.466000000    -4.174000000     5.134000000
H     2.774000000    -3.286000000     4.952000000
H     1.800000000    -4.338000000     4.467000000
O     1.803000000     4.088000000     0.666000000
H     1.512000000     5.000000000     0.694000000
H     1.410000000     3.735000000    -0.132000000
O     1.851000000     2.588000000    -5.141000000
H     1.515000000     2.736000000    -6.026000000
H     1.081000000     2.663000000    -4.577000000
O    -2.154000000    -6.082000000     2.955000000
H    -2.232000000    -5.496000000     2.202000000
H    -1.723000000    -6.863000000     2.608000000
O     4.609000000    -3.035000000     1.439000000
H     3.902000000    -2.986000000     0.796000000
H     4.836000000    -3.964000000     1.476000000
O    -5.849000000     3.070000000    -4.739000000
H    -5.404000000     3.307000000    -3.926000000
H    -6.108000000     2.157000000    -4.613000000
O     4.567000000    -1.557000000    -1.716000000
H     3.731000000    -2.020000000    -1.657000000
H     4.796000000    -1.360000000    -0.808000000
O    -0.057000000     4.376000000    -1.845000000
H    -0.150000000     3.781000000    -2.589000000
H    -0.885000000     4.297000000    -1.371000000
O     4.240000000     1.930000000    -2.708000000
H     4.463000000     1.778000000    -1.790000000
H     4.063000000     2.869000000    -2.759000000
O     5.968000000    -0.653000000     0.945000000
H     5.620000000     0.133000000     1.366000000
H     5.632000000    -1.376000000     1.474000000
O     0.921000000     6.670000000    -2.808000000
H     0.541000000     6.006000000    -2.231000000
H     1.170000000     7.383000000    -2.220000000
O     6.740000000    -3.544000000    -1.985000000
H     5.896000000    -3.141000000    -2.188000000
H     6.517000000    -4.319000000    -1.470000000
O     0.154000000    -7.003000000     0.605000000
H    -0.314000000    -7.836000000     0.549000000
H    -0.498000000    -6.344000000     0.364000000
O     3.745000000    -2.059000000     3.927000000
H     3.116000000    -1.359000000     3.754000000
H     4.027000000    -2.348000000     3.059000000
O     3.711000000    -3.170000000    -4.712000000
H     3.200000000    -3.556000000    -4.001000000
H     3.753000000    -2.238000000    -4.498000000
O     6.610000000     0.357000000    -2.049000000
H     6.299000000    -0.511000000    -1.793000000
H     5.815000000     0.884000000    -2.125000000
O     0.907000000     2.578000000     2.918000000
H     1.321000000     3.006000000     2.169000000
H     0.186000000     2.076000000     2.539000000
O    -2.647000000    -2.612000000    -0.705000000
H    -3.171000000    -3.083000000    -1.353000000
H    -1.740000000    -2.811000000    -0.940000000
O     4.486000000    -5.413000000     3.542000000
H     3.809000000    -5.164000000     4.171000000
H     4.092000000    -6.121000000     3.034000000
O     0.502000000    -2.792000000    -4.404000000
H     0.429000000    -3.373000000    -5.161000000
H     0.984000000    -3.303000000    -3.754000000
O     0.161000000    -1.367000000     5.345000000
H     0.643000000    -2.194000000     5.372000000
H    -0.685000000    -1.570000000     5.744000000
O     4.546000000     2.446000000     0.124000000
H     4.727000000     2.050000000     0.977000000
H     3.881000000     3.110000000     0.305000000
O     3.629000000    -0.510000000    -4.712000000
H     3.556000000     0.127000000    -5.422000000
H     3.856000000     0.013000000    -3.943000000
O    -2.167000000    -2.483000000     3.792000000
H    -1.237000000    -2.323000000     3.950000000
H    -2.211000000    -2.767000000     2.879000000
O    -0.419000000     2.427000000    -3.797000000
H    -0.530000000     1.496000000    -3.988000000
H    -0.854000000     2.874000000    -4.523000000
O    -4.753000000    -1.215000000     3.987000000
H    -3.873000000    -1.577000000     4.098000000
H    -4.912000000    -1.258000000     3.044000000
O     0.130000000    -4.060000000     3.591000000
H    -0.307000000    -4.839000000     3.935000000
H     0.288000000    -4.262000000     2.669000000
O    -2.348000000     4.603000000    -0.342000000
H    -2.051000000     5.216000000     0.330000000
H    -3.300000000     4.588000000    -0.248000000
O     4.730000000    -5.962000000    -0.701000000
H     3.894000000    -5.887000000    -0.241000000
H     5.327000000    -6.336000000    -0.053000000
O    -4.493000000    -2.109000000     1.360000000
H    -4.025000000    -2.388000000     0.573000000
H    -5.183000000    -2.763000000     1.472000000
