158
-3032.65202
C     1.238000000     0.211000000    -0.742000000
H     2.035000000     0.538000000    -1.405000000
C     0.505000000     1.192000000    -0.203000000
H     0.645000000     2.229000000    -0.497000000
C    -0.587000000     0.846000000     0.587000000
H    -1.322000000     1.565000000     1.036000000
C    -0.879000000    -0.447000000     0.848000000
H    -1.748000000    -0.610000000     1.481000000
C    -0.048000000    -1.494000000     0.364000000
H    -0.270000000    -2.517000000     0.657000000
C     0.932000000    -1.144000000    -0.574000000
C     1.587000000    -2.230000000    -1.327000000
O     2.512000000    -2.028000000    -2.110000000
O     1.259000000    -3.368000000    -1.181000000
O     7.326000000    -2.786000000    -2.756000000
H     6.414000000    -3.070000000    -2.831000000
H     7.813000000    -3.591000000    -2.582000000
O    -3.902000000     5.115000000    -3.059000000
H    -4.358000000     4.390000000    -2.632000000
H    -2.975000000     4.951000000    -2.883000000
O     2.137000000     0.356000000     3.542000000
H     1.319000000     0.847000000     3.459000000
H     2.746000000     0.973000000     3.947000000
O     4.067000000    -1.918000000    -4.183000000
H     3.550000000    -1.855000000    -3.379000000
H     3.521000000    -2.431000000    -4.778000000
O    -2.602000000    -3.621000000    -2.576000000
H    -2.100000000    -4.000000000    -1.854000000
H    -3.219000000    -4.309000000    -2.825000000
O    -0.318000000    -0.735000000     6.428000000
H     0.024000000    -1.608000000     6.618000000
H    -0.982000000    -0.879000000     5.754000000
O    -2.355000000     5.743000000     0.527000000
H    -2.682000000     4.917000000     0.884000000
H    -3.024000000     6.386000000     0.758000000
O     2.677000000    -5.459000000    -1.476000000
H     3.109000000    -5.542000000    -0.626000000
H     2.340000000    -4.563000000    -1.487000000
O     0.820000000    -7.699000000    -0.827000000
H     1.024000000    -6.786000000    -0.625000000
H     1.217000000    -8.196000000    -0.111000000
O    -0.215000000     1.267000000     3.898000000
H    -0.830000000     1.818000000     3.413000000
H    -0.750000000     0.547000000     4.232000000
O    -5.308000000     3.160000000    -1.730000000
H    -4.800000000     2.607000000    -2.322000000
H    -6.011000000     2.591000000    -1.415000000
O     4.000000000    -7.013000000    -3.307000000
H     4.749000000    -6.687000000    -3.805000000
H     3.670000000    -6.245000000    -2.840000000
O     1.980000000     4.322000000    -4.531000000
H     2.434000000     4.834000000    -3.862000000
H     1.052000000     4.506000000    -4.385000000
O    -1.247000000    -4.275000000     2.115000000
H    -2.129000000    -4.247000000     2.485000000
H    -0.688000000    -4.534000000     2.848000000
O     1.592000000     2.146000000     6.026000000
H     2.367000000     2.330000000     5.495000000
H     0.956000000     1.790000000     5.405000000
O    -1.189000000     0.970000000    -3.330000000
H    -1.548000000     0.983000000    -2.443000000
H    -0.427000000     0.394000000    -3.272000000
O    -1.153000000    -4.455000000    -0.570000000
H    -0.284000000    -4.109000000    -0.774000000
H    -1.271000000    -4.270000000     0.362000000
O    -3.710000000     1.831000000    -3.517000000
H    -3.948000000     1.138000000    -4.132000000
H    -2.754000000     1.796000000    -3.475000000
O     0.450000000    -5.199000000     4.035000000
H     0.702000000    -5.552000000     4.888000000
H     0.927000000    -4.372000000     3.967000000
O     2.894000000    -3.432000000    -6.252000000
H     1.971000000    -3.436000000    -6.504000000
H     3.343000000    -3.866000000    -6.978000000
O     2.596000000     4.217000000     0.987000000
H     2.976000000     3.340000000     1.031000000
H     2.815000000     4.615000000     1.829000000
O     4.576000000    -0.112000000    -1.466000000
H     4.120000000    -0.893000000    -1.779000000
H     4.261000000     0.006000000    -0.570000000
O     3.745000000     2.308000000    -5.073000000
H     3.620000000     2.135000000    -6.006000000
H     3.040000000     2.913000000    -4.845000000
O     5.081000000    -4.526000000    -0.712000000
H     5.914000000    -4.994000000    -0.657000000
H     4.798000000    -4.647000000    -1.619000000
O     4.046000000    -2.976000000     1.375000000
H     3.206000000    -3.434000000     1.419000000
H     4.502000000    -3.384000000     0.639000000
O    -4.745000000     2.815000000     3.356000000
H    -5.208000000     1.978000000     3.308000000
H    -4.716000000     3.125000000     2.451000000
O     1.498000000     4.736000000    -1.581000000
H     1.909000000     5.523000000    -1.223000000
H     1.532000000     4.101000000    -0.866000000
O    -3.038000000     2.335000000     5.978000000
H    -3.512000000     2.607000000     5.192000000
H    -3.403000000     1.476000000     6.192000000
O     0.787000000    -0.911000000    -3.904000000
H     0.912000000    -1.370000000    -4.734000000
H     1.387000000    -1.346000000    -3.297000000
O    -1.012000000     4.634000000    -4.646000000
H    -1.234000000     3.783000000    -5.024000000
H    -1.274000000     4.563000000    -3.728000000
O     0.259000000    -4.648000000    -3.875000000
H     0.292000000    -3.926000000    -3.247000000
H     0.892000000    -5.284000000    -3.542000000
O     1.008000000    -2.473000000     3.400000000
H     0.167000000    -2.046000000     3.239000000
H     1.576000000    -1.770000000     3.716000000
O     5.136000000     0.030000000    -5.892000000
H     4.654000000     0.743000000    -5.473000000
H     5.060000000    -0.702000000    -5.280000000
O    -2.248000000     3.852000000     3.220000000
H    -3.124000000     3.466000000     3.226000000
H    -2.402000000     4.796000000     3.173000000
O     5.281000000     2.781000000    -2.822000000
H     4.634000000     2.576000000    -3.497000000
H     5.399000000     1.959000000    -2.346000000
O     5.139000000     4.919000000    -0.949000000
H     4.595000000     4.352000000    -0.401000000
H     5.298000000     4.404000000    -1.741000000
O     4.532000000     2.442000000     1.228000000
H     5.465000000     2.460000000     1.016000000
H     4.316000000     1.511000000     1.279000000
O    -3.786000000    -1.170000000    -0.976000000
H    -4.350000000    -0.588000000    -1.485000000
H    -3.249000000    -1.616000000    -1.632000000
O    -4.799000000     4.275000000     0.913000000
H    -5.585000000     4.813000000     1.004000000
H    -4.746000000     4.084000000    -0.023000000
O    -2.198000000    -0.654000000     4.472000000
H    -2.630000000    -1.371000000     4.009000000
H    -2.908000000    -0.200000000     4.926000000
O    -3.460000000    -2.939000000     3.447000000
H    -4.056000000    -3.519000000     3.921000000
H    -3.947000000    -2.683000000     2.664000000
O    -1.221000000     4.465000000    -1.782000000
H    -0.268000000     4.553000000    -1.782000000
H    -1.500000000     4.882000000    -0.967000000
O    -5.697000000     0.224000000     3.156000000
H    -5.929000000    -0.615000000     3.555000000
H    -6.528000000     0.579000000     2.843000000
O    -1.937000000    -6.923000000    -0.737000000
H    -1.698000000    -5.997000000    -0.705000000
H    -1.278000000    -7.320000000    -1.307000000
O     1.862000000    -4.295000000     1.124000000
H     1.054000000    -4.088000000     1.594000000
H     1.777000000    -3.837000000     0.288000000
O     0.072000000     6.700000000     1.653000000
H    -0.629000000     6.131000000     1.336000000
H     0.470000000     6.211000000     2.374000000
O     3.792000000    -0.209000000     1.274000000
H     3.854000000    -1.161000000     1.352000000
H     3.139000000     0.043000000     1.927000000
O    -4.832000000    -2.766000000     0.899000000
H    -5.733000000    -2.839000000     0.584000000
H    -4.399000000    -2.200000000     0.261000000
