158
-3004.67314
C     1.000000000    -0.965000000    -0.458000000
H     1.675000000    -1.704000000    -0.882000000
C     0.901000000     0.297000000    -1.023000000
H     1.599000000     0.787000000    -1.697000000
C    -0.111000000     1.109000000    -0.529000000
H    -0.120000000     2.120000000    -0.852000000
C    -1.013000000     0.674000000     0.379000000
H    -1.752000000     1.331000000     0.829000000
C    -0.894000000    -0.592000000     0.925000000
H    -1.513000000    -0.834000000     1.784000000
C     0.124000000    -1.471000000     0.518000000
C     0.179000000    -2.895000000     1.028000000
O     0.937000000    -3.773000000     0.601000000
O    -0.437000000    -3.164000000     2.026000000
O     2.615000000    -3.964000000    -2.009000000
H     2.139000000    -3.941000000    -1.178000000
H     2.488000000    -4.855000000    -2.333000000
O     2.291000000     1.084000000    -5.046000000
H     2.705000000     1.175000000    -5.904000000
H     1.523000000     1.653000000    -5.089000000
O    -6.154000000     1.379000000    -1.739000000
H    -5.289000000     1.784000000    -1.672000000
H    -5.988000000     0.522000000    -2.129000000
O     0.000000000    -7.138000000    -0.224000000
H     0.034000000    -6.799000000    -1.118000000
H     0.640000000    -6.613000000     0.256000000
O     2.086000000     6.586000000    -2.301000000
H     1.838000000     6.572000000    -3.226000000
H     2.612000000     7.380000000    -2.206000000
O    -5.161000000     0.385000000     1.787000000
H    -5.645000000    -0.427000000     1.937000000
H    -5.519000000     0.730000000     0.969000000
O     1.318000000    -6.064000000     1.853000000
H     1.258000000    -5.109000000     1.871000000
H     2.177000000    -6.258000000     2.228000000
O    -0.026000000     3.720000000     4.254000000
H    -0.822000000     3.203000000     4.129000000
H    -0.341000000     4.587000000     4.509000000
O     5.865000000    -0.286000000    -0.603000000
H     5.462000000    -0.707000000    -1.362000000
H     5.180000000     0.282000000    -0.252000000
O     2.372000000     4.415000000     3.264000000
H     1.515000000     3.990000000     3.298000000
H     2.397000000     4.837000000     2.405000000
O    -2.410000000     3.831000000    -0.423000000
H    -2.884000000     3.135000000    -0.878000000
H    -2.407000000     4.562000000    -1.040000000
O     4.158000000    -3.536000000    -4.940000000
H     3.999000000    -3.055000000    -5.752000000
H     3.285000000    -3.690000000    -4.578000000
O    -0.799000000     1.423000000    -3.426000000
H    -1.282000000     0.885000000    -4.052000000
H    -0.358000000     0.792000000    -2.857000000
O     4.010000000     2.238000000    -2.961000000
H     3.511000000     2.086000000    -3.763000000
H     3.393000000     2.674000000    -2.374000000
O    -2.260000000    -2.523000000     3.683000000
H    -1.878000000    -3.069000000     4.370000000
H    -1.649000000    -2.600000000     2.949000000
O     1.389000000    -0.409000000     4.021000000
H     0.936000000    -0.006000000     4.762000000
H     1.441000000     0.287000000     3.365000000
O    -2.825000000    -0.929000000    -2.189000000
H    -1.969000000    -1.344000000    -2.292000000
H    -2.836000000    -0.623000000    -1.282000000
O     3.045000000    -4.364000000     5.240000000
H     2.136000000    -4.117000000     5.068000000
H     2.985000000    -5.055000000     5.899000000
O    -0.240000000    -7.169000000     4.342000000
H    -0.226000000    -6.689000000     3.514000000
H    -0.514000000    -6.520000000     4.991000000
O    -0.314000000     6.163000000    -0.801000000
H     0.546000000     6.310000000    -1.195000000
H    -0.875000000     5.916000000    -1.537000000
O    -1.000000000     7.047000000     1.767000000
H    -0.365000000     7.222000000     1.072000000
H    -1.401000000     7.898000000     1.945000000
O     0.530000000     4.062000000     0.471000000
H     0.395000000     4.951000000     0.142000000
H    -0.279000000     3.854000000     0.938000000
O     0.001000000     1.942000000    -6.542000000
H    -0.195000000     2.593000000    -7.216000000
H    -0.838000000     1.786000000    -6.108000000
O    -4.582000000    -4.726000000     2.301000000
H    -4.611000000    -4.231000000     1.482000000
H    -3.666000000    -4.990000000     2.390000000
O     0.496000000    -3.943000000     4.505000000
H     0.232000000    -3.501000000     3.699000000
H     0.293000000    -3.315000000     5.199000000
O    -3.505000000     2.230000000    -2.357000000
H    -2.704000000     2.144000000    -2.875000000
H    -4.113000000     2.695000000    -2.932000000
O     3.645000000    -3.453000000     0.760000000
H     2.743000000    -3.576000000     1.056000000
H     3.882000000    -2.579000000     1.071000000
O     0.390000000     4.026000000    -3.549000000
H    -0.313000000     4.585000000    -3.218000000
H     0.015000000     3.146000000    -3.552000000
O     4.594000000    -1.575000000    -2.736000000
H     4.730000000    -1.596000000    -3.684000000
H     4.361000000    -2.474000000    -2.508000000
O    -0.735000000     0.611000000     6.183000000
H    -0.387000000     1.197000000     6.855000000
H    -1.465000000     1.095000000     5.797000000
O     3.276000000    -0.792000000     1.743000000
H     3.428000000     0.137000000     1.920000000
H     3.517000000    -1.233000000     2.557000000
O     2.484000000     3.933000000    -1.459000000
H     2.382000000     4.824000000    -1.793000000
H     1.730000000     3.805000000    -0.882000000
O    -2.537000000     1.789000000     4.797000000
H    -2.701000000     2.257000000     3.978000000
H    -3.092000000     1.011000000     4.743000000
O     6.422000000    -3.676000000    -0.007000000
H     7.093000000    -3.341000000     0.588000000
H     5.596000000    -3.366000000     0.365000000
O     2.293000000     4.686000000    -5.197000000
H     1.754000000     5.219000000    -5.782000000
H     1.742000000     4.545000000    -4.426000000
O     1.258000000     1.653000000     2.315000000
H     1.093000000     2.484000000     1.871000000
H     0.902000000     0.990000000     1.723000000
O    -2.104000000    -4.469000000    -0.679000000
H    -1.302000000    -3.993000000    -0.893000000
H    -2.469000000    -4.719000000    -1.528000000
O    -0.514000000    -2.813000000    -2.793000000
H    -0.618000000    -3.606000000    -3.320000000
H     0.379000000    -2.521000000    -2.972000000
O    -4.077000000    -0.476000000     4.036000000
H    -3.310000000    -1.028000000     3.880000000
H    -4.405000000    -0.270000000     3.161000000
O     4.394000000     2.753000000     1.021000000
H     3.463000000     2.728000000     0.801000000
H     4.449000000     2.342000000     1.883000000
O     2.000000000    -1.614000000    -3.894000000
H     2.621000000    -1.324000000    -3.226000000
H     2.096000000    -0.977000000    -4.602000000
O    -2.344000000     5.289000000    -3.071000000
H    -2.677000000     4.976000000    -3.912000000
H    -2.336000000     6.242000000    -3.157000000
O    -5.894000000    -1.866000000     2.314000000
H    -6.066000000    -2.626000000     2.871000000
H    -5.169000000    -2.140000000     1.753000000
O    -1.957000000    -5.247000000     1.965000000
H    -2.087000000    -5.449000000     1.038000000
H    -1.550000000    -4.380000000     1.966000000
O    -3.328000000     5.681000000     1.251000000
H    -2.435000000     6.014000000     1.338000000
H    -3.253000000     4.950000000     0.638000000
O     4.559000000    -6.444000000     0.696000000
H     4.121000000    -5.696000000     0.290000000
H     5.450000000    -6.137000000     0.865000000
O    -4.379000000    -2.712000000     0.206000000
H    -3.434000000    -2.844000000     0.135000000
H    -4.725000000    -2.999000000    -0.639000000
O    -3.139000000     2.751000000     2.416000000
H    -2.826000000     3.014000000     1.550000000
H    -4.087000000     2.670000000     2.314000000
