158
-3015.71756
C     1.301000000    -0.759000000    -0.076000000
H     2.241000000    -1.301000000    -0.142000000
C     1.073000000     0.564000000    -0.506000000
H     1.862000000     1.224000000    -0.855000000
C    -0.145000000     1.164000000    -0.377000000
H    -0.198000000     2.259000000    -0.462000000
C    -1.164000000     0.468000000     0.285000000
H    -2.087000000     0.975000000     0.552000000
C    -1.029000000    -0.899000000     0.509000000
H    -1.859000000    -1.358000000     1.041000000
C     0.177000000    -1.541000000     0.294000000
C     0.365000000    -2.962000000     0.780000000
O     1.459000000    -3.383000000     0.991000000
O    -0.574000000    -3.670000000     1.102000000
O    -1.992000000     3.153000000    -5.230000000
H    -2.242000000     3.061000000    -4.310000000
H    -2.767000000     2.873000000    -5.717000000
O     2.137000000    -3.547000000    -2.390000000
H     2.633000000    -3.375000000    -1.590000000
H     2.397000000    -4.432000000    -2.647000000
O     5.195000000    -3.566000000     4.499000000
H     5.658000000    -3.476000000     3.666000000
H     4.359000000    -3.121000000     4.358000000
O     1.169000000     2.483000000    -4.942000000
H     0.809000000     2.086000000    -5.735000000
H     1.057000000     1.814000000    -4.267000000
O    -5.647000000     4.023000000    -2.686000000
H    -5.672000000     4.649000000    -1.963000000
H    -4.946000000     4.340000000    -3.255000000
O    -0.113000000    -6.932000000    -1.404000000
H    -0.876000000    -6.429000000    -1.688000000
H     0.230000000    -7.322000000    -2.208000000
O     2.220000000     6.445000000     0.455000000
H     1.743000000     7.247000000     0.670000000
H     2.780000000     6.689000000    -0.281000000
O    -6.038000000     1.831000000     1.436000000
H    -5.761000000     0.928000000     1.591000000
H    -6.467000000     1.807000000     0.581000000
O     1.822000000    -5.896000000     0.239000000
H     1.501000000    -5.038000000     0.516000000
H     1.099000000    -6.270000000    -0.264000000
O     4.968000000     0.502000000    -2.417000000
H     4.228000000    -0.105000000    -2.449000000
H     4.565000000     1.368000000    -2.359000000
O     2.875000000     5.468000000     2.727000000
H     2.104000000     5.034000000     3.094000000
H     2.771000000     5.382000000     1.780000000
O    -3.847000000     4.147000000     0.033000000
H    -4.326000000     3.334000000     0.194000000
H    -2.925000000     3.894000000     0.074000000
O     3.259000000     2.719000000    -2.879000000
H     2.679000000     2.479000000    -3.601000000
H     2.671000000     2.869000000    -2.138000000
O    -2.610000000    -3.417000000     2.727000000
H    -2.253000000    -3.223000000     3.594000000
H    -1.841000000    -3.479000000     2.160000000
O     3.637000000    -0.516000000     3.189000000
H     4.170000000     0.085000000     3.709000000
H     2.990000000     0.046000000     2.762000000
O     2.421000000    -5.298000000     4.934000000
H     2.286000000    -4.584000000     4.311000000
H     1.611000000    -5.807000000     4.893000000
O     1.322000000    -7.500000000     2.746000000
H     1.517000000    -7.243000000     1.845000000
H     0.650000000    -6.881000000     3.032000000
O    -1.341000000    -2.185000000     4.720000000
H    -1.130000000    -1.335000000     4.333000000
H    -1.491000000    -1.996000000     5.646000000
O    -1.248000000     4.603000000    -1.072000000
H    -0.710000000     4.403000000    -1.838000000
H    -1.938000000     5.175000000    -1.407000000
O    -0.937000000     6.646000000     1.231000000
H    -1.391000000     6.042000000     1.819000000
H    -0.457000000     6.078000000     0.628000000
O     0.416000000     3.479000000     2.056000000
H    -0.454000000     3.453000000     1.656000000
H     0.343000000     4.141000000     2.744000000
O    -4.739000000    -5.041000000     0.681000000
H    -3.974000000    -4.557000000     0.368000000
H    -4.990000000    -5.596000000    -0.058000000
O     5.596000000     4.139000000    -2.766000000
H     5.757000000     3.897000000    -1.854000000
H     4.689000000     3.878000000    -2.927000000
O    -4.517000000    -3.024000000    -2.369000000
H    -4.440000000    -3.590000000    -3.137000000
H    -3.995000000    -3.461000000    -1.697000000
O    -0.317000000    -5.285000000     3.368000000
H    -0.374000000    -4.887000000     2.499000000
H    -0.516000000    -4.570000000     3.973000000
O    -3.428000000     0.888000000    -2.804000000
H    -2.899000000     0.174000000    -3.160000000
H    -3.955000000     1.188000000    -3.544000000
O     3.829000000    -3.318000000     0.104000000
H     4.385000000    -3.200000000     0.875000000
H     2.936000000    -3.241000000     0.439000000
O     0.441000000     4.442000000    -3.039000000
H     0.699000000     4.053000000    -3.875000000
H     0.834000000     5.314000000    -3.049000000
O     2.967000000    -1.305000000    -3.251000000
H     2.270000000    -0.660000000    -3.372000000
H     2.512000000    -2.099000000    -2.970000000
O     6.171000000     0.047000000     1.320000000
H     6.423000000    -0.860000000     1.489000000
H     5.560000000     0.261000000     2.025000000
O     2.234000000     3.687000000    -0.188000000
H     2.338000000     4.624000000    -0.026000000
H     1.696000000     3.376000000     0.540000000
O    -1.776000000     0.871000000     4.951000000
H    -2.103000000     0.972000000     5.846000000
H    -2.536000000     1.051000000     4.397000000
O     2.597000000    -3.029000000     3.314000000
H     2.233000000    -3.084000000     2.430000000
H     2.878000000    -2.119000000     3.401000000
O     5.915000000    -2.124000000    -1.676000000
H     5.169000000    -2.381000000    -1.134000000
H     5.659000000    -1.283000000    -2.054000000
O     1.617000000     1.107000000     2.605000000
H     1.181000000     1.954000000     2.511000000
H     1.502000000     0.683000000     1.754000000
O    -2.043000000    -5.558000000    -2.814000000
H    -1.569000000    -4.787000000    -3.126000000
H    -2.864000000    -5.549000000    -3.306000000
O    -0.617000000    -3.450000000    -3.540000000
H    -0.185000000    -3.089000000    -4.315000000
H     0.098000000    -3.640000000    -2.933000000
O    -4.925000000     0.277000000     4.111000000
H    -4.751000000    -0.484000000     3.557000000
H    -5.875000000     0.280000000     4.223000000
O     5.075000000     2.188000000    -0.185000000
H     4.399000000     2.715000000     0.242000000
H     5.168000000     1.418000000     0.375000000
O     0.586000000    -0.072000000    -3.364000000
H    -0.126000000    -0.223000000    -2.742000000
H     0.268000000    -0.445000000    -4.186000000
O    -3.574000000     5.018000000    -4.202000000
H    -3.113000000     5.826000000    -3.974000000
H    -3.072000000     4.653000000    -4.930000000
O    -4.557000000    -1.568000000     1.950000000
H    -3.877000000    -2.230000000     2.078000000
H    -4.290000000    -1.100000000     1.159000000
O    -2.749000000    -3.885000000    -0.637000000
H    -2.433000000    -4.650000000    -1.117000000
H    -2.004000000    -3.613000000    -0.102000000
O    -3.790000000     6.741000000     1.192000000
H    -2.862000000     6.875000000     1.001000000
H    -3.977000000     5.861000000     0.867000000
O     4.235000000    -7.481000000     1.109000000
H     3.531000000    -6.833000000     1.099000000
H     4.342000000    -7.704000000     2.033000000
O    -4.586000000    -0.788000000    -0.659000000
H    -4.561000000    -1.598000000    -1.169000000
H    -4.257000000    -0.118000000    -1.258000000
O    -2.407000000     4.832000000     2.660000000
H    -2.464000000     4.984000000     3.603000000
H    -3.270000000     4.493000000     2.420000000
O    -6.610000000    -3.258000000     1.671000000
H    -5.964000000    -2.553000000     1.713000000
H    -6.106000000    -4.029000000     1.410000000
