158
-3025.02098
C     1.338000000     0.280000000    -0.642000000
H     2.335000000     0.526000000    -1.000000000
C     0.387000000     1.294000000    -0.296000000
H     0.502000000     2.356000000    -0.498000000
C    -0.834000000     0.847000000     0.198000000
H    -1.629000000     1.605000000     0.456000000
C    -1.091000000    -0.503000000     0.414000000
H    -2.121000000    -0.762000000     0.643000000
C    -0.080000000    -1.459000000     0.185000000
H    -0.281000000    -2.518000000     0.325000000
C     1.162000000    -1.041000000    -0.271000000
C     2.251000000    -2.051000000    -0.334000000
O     3.256000000    -1.806000000    -1.003000000
O     2.315000000    -2.821000000     0.567000000
O    -3.719000000     3.557000000    -4.436000000
H    -4.239000000     2.781000000    -4.228000000
H    -2.874000000     3.400000000    -4.015000000
O     1.796000000     0.011000000     4.120000000
H     1.085000000     0.650000000     4.056000000
H     2.100000000    -0.099000000     3.219000000
O     4.132000000    -2.735000000    -5.400000000
H     3.955000000    -1.970000000    -4.853000000
H     3.700000000    -3.459000000    -4.947000000
O    -1.566000000    -2.682000000    -2.413000000
H    -0.758000000    -3.141000000    -2.187000000
H    -1.301000000    -1.769000000    -2.523000000
O     0.203000000    -2.910000000     5.354000000
H    -0.558000000    -2.577000000     5.830000000
H     0.022000000    -2.702000000     4.438000000
O    -4.314000000    -0.515000000     3.875000000
H    -3.657000000    -1.182000000     4.077000000
H    -4.978000000    -0.618000000     4.557000000
O    -3.990000000     3.444000000    -0.573000000
H    -4.696000000     3.017000000    -0.088000000
H    -4.276000000     4.353000000    -0.663000000
O     4.588000000    -4.004000000    -1.658000000
H     3.964000000    -4.727000000    -1.591000000
H     4.115000000    -3.248000000    -1.310000000
O    -0.843000000     1.123000000     4.480000000
H    -1.542000000     1.461000000     3.921000000
H    -0.925000000     0.172000000     4.418000000
O    -5.656000000     1.753000000    -2.986000000
H    -4.968000000     1.212000000    -3.373000000
H    -5.873000000     1.313000000    -2.164000000
O     4.370000000    -4.189000000     3.690000000
H     4.855000000    -3.379000000     3.847000000
H     3.876000000    -4.332000000     4.498000000
O    -3.920000000     6.248000000    -0.902000000
H    -3.868000000     6.388000000    -1.848000000
H    -4.373000000     7.022000000    -0.569000000
O     1.656000000     0.780000000    -4.306000000
H     1.158000000     0.105000000    -4.768000000
H     2.347000000     0.298000000    -3.852000000
O     1.191000000    -3.833000000     2.871000000
H     2.064000000    -4.209000000     2.989000000
H     1.221000000    -3.423000000     2.007000000
O     0.896000000     3.373000000     4.763000000
H     1.145000000     3.210000000     3.854000000
H     0.353000000     2.621000000     5.001000000
O     1.466000000     2.040000000     2.236000000
H     2.345000000     1.829000000     1.923000000
H     0.892000000     1.829000000     1.499000000
O    -0.898000000     0.758000000    -2.700000000
H    -0.888000000     1.203000000    -1.852000000
H     0.003000000     0.827000000    -3.017000000
O     0.331000000    -4.819000000    -1.904000000
H     0.253000000    -5.501000000    -2.571000000
H     1.225000000    -4.908000000    -1.575000000
O    -3.244000000     0.963000000    -3.883000000
H    -3.228000000     0.347000000    -4.616000000
H    -2.328000000     1.040000000    -3.615000000
O    -0.735000000    -5.831000000     2.747000000
H    -0.880000000    -5.962000000     1.811000000
H     0.061000000    -5.302000000     2.795000000
O     2.918000000    -4.974000000    -4.132000000
H     3.198000000    -5.293000000    -3.274000000
H     2.003000000    -5.245000000    -4.201000000
O     2.401000000     4.475000000    -1.238000000
H     3.159000000     3.919000000    -1.417000000
H     2.490000000     4.712000000    -0.315000000
O    -6.130000000    -0.174000000    -1.129000000
H    -5.582000000    -0.286000000    -0.352000000
H    -6.963000000    -0.583000000    -0.895000000
O     3.498000000    -0.958000000    -3.386000000
H     3.187000000    -1.279000000    -2.539000000
H     4.309000000    -0.493000000    -3.183000000
O     6.213000000    -4.537000000    -3.661000000
H     6.529000000    -5.367000000    -3.305000000
H     5.588000000    -4.219000000    -3.009000000
O     7.372000000    -4.512000000    -0.753000000
H     7.542000000    -5.313000000    -1.249000000
H     6.473000000    -4.275000000    -0.982000000
O    -3.056000000     1.731000000     2.619000000
H    -3.182000000     0.814000000     2.377000000
H    -3.915000000     2.133000000     2.488000000
O     3.776000000     3.468000000    -4.494000000
H     2.875000000     3.146000000    -4.532000000
H     4.264000000     2.765000000    -4.065000000
O     0.903000000    -2.100000000    -3.582000000
H     0.691000000    -2.833000000    -4.161000000
H     1.735000000    -2.347000000    -3.179000000
O    -0.072000000     3.499000000    -4.555000000
H     0.739000000     3.332000000    -4.075000000
H    -0.720000000     3.683000000    -3.875000000
O    -1.906000000     5.681000000     1.023000000
H    -2.685000000     5.344000000     0.580000000
H    -2.212000000     6.461000000     1.485000000
O     5.101000000    -1.802000000     0.837000000
H     4.406000000    -1.761000000     0.180000000
H     4.754000000    -2.380000000     1.517000000
O    -1.901000000     4.052000000     3.449000000
H    -2.325000000     3.331000000     2.984000000
H    -1.685000000     4.684000000     2.763000000
O     5.387000000     0.894000000    -2.254000000
H     5.718000000     1.208000000    -3.096000000
H     6.146000000     0.487000000    -1.836000000
O     4.951000000     3.464000000    -1.161000000
H     5.709000000     3.660000000    -0.611000000
H     5.148000000     2.610000000    -1.546000000
O     4.104000000     1.267000000     1.410000000
H     4.670000000     1.952000000     1.056000000
H     4.304000000     0.494000000     0.881000000
O    -4.368000000    -2.505000000    -1.957000000
H    -4.116000000    -1.598000000    -1.782000000
H    -3.572000000    -2.913000000    -2.300000000
O    -1.196000000    -6.631000000    -0.047000000
H    -0.607000000    -5.995000000    -0.454000000
H    -1.656000000    -7.036000000    -0.783000000
O    -5.603000000     2.365000000     1.511000000
H    -6.379000000     2.906000000     1.661000000
H    -5.932000000     1.467000000     1.514000000
O    -0.909000000    -1.490000000     3.244000000
H    -0.680000000    -1.378000000     2.322000000
H    -1.696000000    -2.035000000     3.231000000
O    -3.185000000    -2.986000000     2.216000000
H    -3.468000000    -3.535000000     2.947000000
H    -3.982000000    -2.833000000     1.709000000
O    -2.033000000     3.863000000    -2.354000000
H    -2.709000000     3.502000000    -1.780000000
H    -1.789000000     4.693000000    -1.945000000
O    -5.693000000    -0.670000000     1.575000000
H    -6.448000000    -1.215000000     1.796000000
H    -5.150000000    -0.683000000     2.363000000
O     2.900000000    -5.968000000    -1.245000000
H     2.489000000    -6.828000000    -1.334000000
H     2.972000000    -5.833000000    -0.300000000
O     3.258000000    -5.203000000     1.208000000
H     4.036000000    -5.023000000     1.736000000
H     2.979000000    -4.343000000     0.893000000
O     0.324000000     6.386000000    -1.174000000
H    -0.216000000     6.318000000    -0.386000000
H     1.050000000     5.782000000    -1.019000000
O     7.237000000    -0.649000000    -1.036000000
H     7.885000000    -1.299000000    -1.306000000
H     6.817000000    -1.034000000    -0.267000000
O    -5.178000000    -4.339000000     0.679000000
H    -5.972000000    -3.806000000     0.713000000
H    -4.637000000    -3.921000000     0.010000000
