158
-3031.61814
C     1.432000000     0.668000000    -0.051000000
H     2.356000000     1.238000000    -0.096000000
C     0.180000000     1.216000000    -0.531000000
H     0.102000000     2.188000000    -1.011000000
C    -1.031000000     0.488000000    -0.504000000
H    -1.980000000     1.020000000    -0.852000000
C    -1.128000000    -0.739000000     0.183000000
H    -2.029000000    -1.344000000     0.245000000
C     0.051000000    -1.247000000     0.692000000
H    -0.024000000    -2.140000000     1.308000000
C     1.315000000    -0.576000000     0.625000000
C     2.540000000    -1.304000000     1.202000000
O     3.496000000    -0.654000000     1.543000000
O     2.472000000    -2.512000000     1.508000000
O    -3.917000000     0.941000000    -4.230000000
H    -3.508000000     0.162000000    -4.606000000
H    -4.696000000     0.610000000    -3.783000000
O     1.059000000    -0.464000000     4.708000000
H     0.346000000    -0.185000000     4.134000000
H     0.780000000    -0.198000000     5.584000000
O     1.104000000     7.118000000    -1.896000000
H     1.229000000     6.169000000    -1.904000000
H     1.917000000     7.470000000    -2.260000000
O     3.903000000    -1.064000000     4.310000000
H     4.086000000    -0.786000000     3.412000000
H     2.999000000    -0.791000000     4.466000000
O    -0.806000000    -1.406000000    -2.846000000
H    -1.114000000    -0.943000000    -2.067000000
H     0.136000000    -1.506000000    -2.708000000
O     2.332000000    -5.888000000     4.184000000
H     2.479000000    -6.720000000     4.634000000
H     2.653000000    -5.226000000     4.796000000
O    -0.949000000     0.600000000     2.709000000
H    -0.597000000     0.434000000     1.834000000
H    -1.705000000     0.017000000     2.777000000
O    -5.538000000    -1.856000000     2.937000000
H    -5.792000000    -2.095000000     2.046000000
H    -6.367000000    -1.740000000     3.400000000
O    -0.418000000     2.941000000    -3.865000000
H    -1.167000000     2.722000000    -3.310000000
H    -0.483000000     2.337000000    -4.605000000
O     4.662000000    -0.526000000    -0.839000000
H     4.354000000    -0.656000000     0.058000000
H     5.559000000    -0.861000000    -0.835000000
O    -2.936000000    -1.497000000     2.932000000
H    -2.674000000    -2.401000000     2.762000000
H    -3.889000000    -1.534000000     3.009000000
O     5.127000000     0.087000000    -3.442000000
H     4.558000000    -0.082000000    -2.692000000
H     5.361000000     1.012000000    -3.362000000
O     6.573000000    -0.967000000     2.297000000
H     5.929000000    -1.662000000     2.434000000
H     6.107000000    -0.161000000     2.518000000
O     1.525000000    -3.431000000     5.380000000
H     0.739000000    -3.838000000     5.015000000
H     1.543000000    -2.556000000     4.993000000
O    -0.069000000     0.676000000    -5.327000000
H     0.065000000    -0.266000000    -5.223000000
H     0.791000000     1.060000000    -5.157000000
O     0.908000000    -4.564000000     2.367000000
H     1.251000000    -5.253000000     2.936000000
H     1.658000000    -3.993000000     2.204000000
O     6.521000000    -5.011000000     2.739000000
H     7.139000000    -5.227000000     3.437000000
H     5.846000000    -4.486000000     3.170000000
O    -2.369000000    -1.114000000    -5.267000000
H    -1.820000000    -1.260000000    -6.038000000
H    -1.755000000    -0.841000000    -4.585000000
O    -0.800000000    -4.731000000     4.668000000
H    -0.665000000    -4.727000000     3.720000000
H    -1.511000000    -4.106000000     4.811000000
O     4.338000000     4.619000000     0.393000000
H     5.012000000     5.157000000    -0.021000000
H     3.822000000     5.237000000     0.911000000
O    -2.118000000    -4.938000000    -2.134000000
H    -2.323000000    -4.163000000    -2.658000000
H    -1.307000000    -4.711000000    -1.679000000
O     0.151000000    -4.319000000    -0.297000000
H     0.275000000    -5.268000000    -0.260000000
H     0.353000000    -4.016000000     0.588000000
O    -1.499000000     7.291000000    -0.151000000
H    -0.662000000     7.604000000    -0.495000000
H    -1.523000000     6.363000000    -0.385000000
O     5.748000000     2.123000000     4.738000000
H     5.277000000     1.866000000     3.945000000
H     5.469000000     1.489000000     5.398000000
O    -5.993000000    -0.711000000    -2.853000000
H    -5.351000000    -1.280000000    -2.428000000
H    -6.682000000    -0.596000000    -2.199000000
O    -3.424000000     4.726000000     2.973000000
H    -2.774000000     4.284000000     2.426000000
H    -3.972000000     4.018000000     3.312000000
O    -4.930000000    -3.083000000    -1.849000000
H    -5.560000000    -3.632000000    -2.314000000
H    -4.199000000    -2.987000000    -2.460000000
O    -1.078000000     4.049000000     1.690000000
H    -1.101000000     3.100000000     1.812000000
H    -0.949000000     4.166000000     0.749000000
O     1.777000000     4.526000000    -4.486000000
H     1.628000000     4.605000000    -5.429000000
H     1.068000000     3.961000000    -4.179000000
O    -2.731000000     3.167000000    -2.380000000
H    -3.353000000     2.507000000    -2.686000000
H    -3.013000000     3.366000000    -1.487000000
O    -2.338000000    -2.767000000     5.361000000
H    -3.210000000    -3.150000000     5.264000000
H    -2.423000000    -1.885000000     4.998000000
O    -0.627000000     4.595000000    -0.910000000
H    -0.969000000     4.104000000    -1.657000000
H     0.287000000     4.320000000    -0.841000000
O    -6.462000000    -2.772000000     0.571000000
H    -5.868000000    -2.761000000    -0.179000000
H    -7.296000000    -2.459000000     0.220000000
O     4.461000000    -3.667000000     3.507000000
H     4.149000000    -2.820000000     3.826000000
H     3.998000000    -3.797000000     2.679000000
O    -3.450000000     4.671000000    -5.149000000
H    -4.336000000     4.309000000    -5.128000000
H    -2.988000000     4.214000000    -4.447000000
O     2.016000000     2.518000000     3.823000000
H     2.415000000     1.703000000     3.520000000
H     2.712000000     3.171000000     3.739000000
O     3.634000000    -6.417000000     1.855000000
H     3.209000000    -6.254000000     2.697000000
H     4.418000000    -6.920000000     2.076000000
O     4.418000000     1.623000000     2.613000000
H     4.804000000     2.277000000     2.030000000
H     3.855000000     1.098000000     2.044000000
O    -3.475000000    -3.169000000    -4.052000000
H    -3.950000000    -3.623000000    -4.748000000
H    -3.041000000    -2.439000000    -4.494000000
O     1.319000000    -3.495000000    -2.668000000
H     0.952000000    -3.583000000    -1.789000000
H     1.772000000    -4.324000000    -2.822000000
O    -3.733000000     2.934000000     0.305000000
H    -4.056000000     2.133000000     0.717000000
H    -4.510000000     3.483000000     0.205000000
O     6.781000000    -3.609000000     0.328000000
H     5.972000000    -4.108000000     0.214000000
H     7.045000000    -3.783000000     1.231000000
O    -2.093000000    -3.971000000     1.521000000
H    -1.308000000    -4.508000000     1.418000000
H    -2.683000000    -4.275000000     0.831000000
O     2.044000000     4.319000000    -0.904000000
H     2.466000000     4.205000000    -0.052000000
H     2.769000000     4.456000000    -1.514000000
O    -5.292000000     0.710000000     1.729000000
H    -5.228000000    -0.228000000     1.911000000
H    -5.912000000     0.771000000     1.002000000
O     4.149000000    -4.388000000     0.176000000
H     3.945000000    -4.998000000     0.885000000
H     3.678000000    -3.587000000     0.405000000
O     6.925000000     1.241000000    -0.595000000
H     6.343000000     1.077000000    -1.337000000
H     7.467000000     0.454000000    -0.538000000
O    -7.390000000     1.146000000     0.000000000
H    -7.957000000     1.316000000    -0.753000000
H    -7.899000000     0.555000000     0.554000000
