158
-3032.13589
C     0.138000000     1.385000000     0.380000000
H     0.230000000     2.454000000     0.556000000
C     0.363000000     0.870000000    -0.944000000
H     0.513000000     1.517000000    -1.804000000
C     0.338000000    -0.556000000    -1.113000000
H     0.550000000    -1.068000000    -2.042000000
C    -0.146000000    -1.294000000    -0.045000000
H    -0.190000000    -2.370000000    -0.195000000
C    -0.513000000    -0.731000000     1.194000000
H    -0.804000000    -1.354000000     2.036000000
C    -0.335000000     0.598000000     1.475000000
C    -0.686000000     1.235000000     2.827000000
O    -0.557000000     2.427000000     3.041000000
O    -1.072000000     0.516000000     3.690000000
O     3.948000000     3.687000000     0.241000000
H     4.447000000     4.122000000     0.932000000
H     4.560000000     3.055000000    -0.135000000
O     2.613000000    -4.573000000    -4.532000000
H     1.890000000    -4.991000000    -4.999000000
H     3.043000000    -5.289000000    -4.065000000
O    -2.733000000    -0.037000000    -4.065000000
H    -3.432000000     0.469000000    -4.478000000
H    -1.979000000     0.080000000    -4.642000000
O    -2.456000000     4.178000000     5.472000000
H    -1.510000000     4.226000000     5.607000000
H    -2.603000000     3.303000000     5.111000000
O     1.402000000    -4.639000000    -1.515000000
H     2.022000000    -3.938000000    -1.315000000
H     0.912000000    -4.318000000    -2.272000000
O    -3.554000000     2.817000000    -2.152000000
H    -3.932000000     3.695000000    -2.203000000
H    -4.204000000     2.252000000    -2.569000000
O    -3.138000000    -0.844000000    -1.338000000
H    -2.271000000    -0.670000000    -0.971000000
H    -3.059000000    -0.605000000    -2.261000000
O     4.250000000    -2.924000000    -1.151000000
H     4.660000000    -3.609000000    -1.679000000
H     4.698000000    -2.119000000    -1.413000000
O    -0.369000000    -3.024000000    -3.330000000
H    -0.256000000    -3.137000000    -4.274000000
H    -1.313000000    -2.921000000    -3.212000000
O    -0.874000000    -6.240000000    -0.768000000
H    -0.390000000    -5.506000000    -1.146000000
H    -0.225000000    -6.711000000    -0.245000000
O     2.658000000    -0.739000000     0.941000000
H     1.782000000    -0.563000000     0.596000000
H     2.937000000     0.093000000     1.322000000
O    -4.787000000    -0.317000000     7.077000000
H    -4.655000000     0.228000000     6.301000000
H    -5.517000000     0.096000000     7.539000000
O     5.098000000     1.549000000    -5.385000000
H     4.449000000     0.870000000    -5.569000000
H     5.215000000     2.001000000    -6.221000000
O     5.622000000     1.689000000    -1.117000000
H     6.313000000     1.932000000    -0.501000000
H     5.368000000     0.804000000    -0.855000000
O     0.707000000     2.646000000     5.524000000
H     1.164000000     3.482000000     5.427000000
H     0.039000000     2.657000000     4.839000000
O     2.802000000    -3.386000000     1.110000000
H     3.677000000    -3.330000000     0.727000000
H     2.383000000    -2.558000000     0.874000000
O    -2.309000000     1.268000000     5.929000000
H    -2.205000000     0.753000000     6.730000000
H    -1.763000000     0.818000000     5.284000000
O     2.148000000    -6.231000000     1.478000000
H     2.329000000    -5.417000000     1.008000000
H     1.314000000    -6.073000000     1.919000000
O     0.070000000    -1.560000000     4.719000000
H    -0.563000000    -1.035000000     4.228000000
H     0.784000000    -0.953000000     4.915000000
O    -3.295000000    -1.308000000     3.897000000
H    -2.700000000    -0.563000000     3.988000000
H    -3.553000000    -1.296000000     2.975000000
O     1.487000000     5.315000000     5.607000000
H     1.185000000     5.924000000     6.282000000
H     2.372000000     5.611000000     5.395000000
O     1.949000000     2.038000000    -4.603000000
H     1.852000000     2.991000000    -4.616000000
H     2.636000000     1.877000000    -3.956000000
O     2.798000000     6.063000000    -0.500000000
H     3.278000000     5.369000000    -0.048000000
H     3.158000000     6.875000000    -0.143000000
O    -2.879000000    -3.824000000    -0.994000000
H    -2.821000000    -3.710000000    -0.045000000
H    -2.961000000    -2.935000000    -1.338000000
O    -0.594000000     1.079000000    -5.430000000
H     0.264000000     1.311000000    -5.075000000
H    -0.790000000     1.773000000    -6.059000000
O    -3.273000000    -2.473000000     6.157000000
H    -3.258000000    -2.065000000     5.291000000
H    -3.825000000    -1.896000000     6.684000000
O     2.947000000    -0.306000000    -6.084000000
H     2.243000000     0.212000000    -5.694000000
H     3.163000000    -0.957000000    -5.416000000
O     2.950000000     1.475000000     4.791000000
H     2.270000000     1.976000000     5.242000000
H     2.777000000     1.620000000     3.861000000
O    -1.880000000     6.854000000     2.751000000
H    -2.069000000     6.977000000     3.682000000
H    -1.650000000     5.928000000     2.674000000
O    -1.349000000     3.430000000    -3.841000000
H    -1.886000000     2.661000000    -3.647000000
H    -1.650000000     4.094000000    -3.222000000
O    -2.974000000    -2.658000000    -4.557000000
H    -3.304000000    -2.838000000    -5.437000000
H    -2.993000000    -1.704000000    -4.485000000
O    -1.678000000     4.353000000     1.753000000
H    -1.237000000     3.762000000     2.364000000
H    -0.990000000     4.628000000     1.147000000
O     6.084000000    -1.645000000    -4.869000000
H     5.204000000    -1.998000000    -4.737000000
H     5.941000000    -0.788000000    -5.271000000
O     0.197000000     5.313000000     0.090000000
H    -0.254000000     5.845000000    -0.566000000
H     1.127000000     5.448000000    -0.091000000
O    -2.465000000    -6.412000000     1.354000000
H    -2.024000000    -6.452000000     0.505000000
H    -2.642000000    -5.480000000     1.488000000
O     0.619000000     4.681000000    -5.193000000
H    -0.154000000     4.397000000    -4.705000000
H     1.127000000     5.190000000    -4.562000000
O     3.129000000     2.744000000    -2.233000000
H     4.084000000     2.727000000    -2.280000000
H     2.938000000     3.125000000    -1.375000000
O    -4.098000000     2.889000000     0.796000000
H    -3.573000000     3.687000000     0.850000000
H    -3.758000000     2.429000000     0.028000000
O    -4.388000000     1.672000000     3.304000000
H    -3.714000000     0.994000000     3.340000000
H    -4.039000000     2.325000000     2.699000000
O     2.392000000     2.588000000     2.353000000
H     2.523000000     2.973000000     1.486000000
H     1.527000000     2.897000000     2.623000000
O     2.927000000    -6.665000000    -2.819000000
H     2.427000000    -6.168000000    -2.171000000
H     2.423000000    -7.469000000    -2.944000000
O     1.094000000    -4.286000000     3.246000000
H     1.040000000    -3.519000000     3.816000000
H     1.698000000    -4.026000000     2.550000000
O    -4.211000000    -1.436000000     1.224000000
H    -3.951000000    -1.174000000     0.341000000
H    -5.020000000    -0.952000000     1.388000000
O     1.311000000     0.690000000     7.832000000
H     1.012000000     1.222000000     7.094000000
H     1.941000000     1.246000000     8.289000000
O     3.353000000    -2.038000000    -4.109000000
H     3.047000000    -2.901000000    -4.389000000
H     3.309000000    -2.066000000    -3.154000000
O    -1.414000000    -0.716000000     7.366000000
H    -1.563000000    -1.491000000     6.824000000
H    -0.479000000    -0.743000000     7.570000000
O    -2.918000000    -3.671000000     1.587000000
H    -2.768000000    -3.729000000     2.531000000
H    -3.470000000    -2.896000000     1.481000000
O    -1.576000000    -4.756000000     3.893000000
H    -1.666000000    -4.758000000     4.846000000
H    -0.635000000    -4.674000000     3.741000000
