158
-3031.81106
C    -0.394000000     1.201000000     0.754000000
H    -0.590000000     2.178000000     1.187000000
C    -0.143000000     1.141000000    -0.633000000
H    -0.305000000     1.995000000    -1.285000000
C     0.173000000    -0.081000000    -1.205000000
H     0.392000000    -0.143000000    -2.299000000
C     0.236000000    -1.193000000    -0.396000000
H     0.600000000    -2.087000000    -0.896000000
C     0.083000000    -1.149000000     1.013000000
H     0.235000000    -2.070000000     1.571000000
C    -0.318000000     0.077000000     1.599000000
C    -0.392000000     0.267000000     3.111000000
O    -0.323000000     1.397000000     3.577000000
O    -0.141000000    -0.656000000     3.794000000
O     0.689000000    -1.080000000    -5.202000000
H    -0.236000000    -0.900000000    -5.373000000
H     1.052000000    -0.234000000    -4.938000000
O    -0.494000000     4.709000000     4.312000000
H     0.171000000     5.268000000     4.713000000
H    -0.288000000     3.828000000     4.625000000
O    -0.259000000    -4.671000000     0.145000000
H    -0.057000000    -4.272000000    -0.701000000
H     0.580000000    -4.695000000     0.605000000
O    -1.187000000    -1.409000000     6.098000000
H    -0.857000000    -0.662000000     6.598000000
H    -0.773000000    -1.325000000     5.240000000
O    -3.957000000     1.356000000     0.154000000
H    -3.307000000     1.775000000     0.718000000
H    -4.737000000     1.277000000     0.704000000
O    -2.741000000    -1.040000000    -0.355000000
H    -3.390000000    -0.363000000    -0.164000000
H    -1.918000000    -0.685000000    -0.017000000
O     4.710000000    -2.888000000    -1.101000000
H     5.510000000    -3.264000000    -1.468000000
H     4.810000000    -1.944000000    -1.224000000
O    -0.004000000    -3.159000000    -3.511000000
H     0.697000000    -3.313000000    -2.878000000
H     0.284000000    -2.392000000    -4.005000000
O     3.837000000    -1.083000000     1.545000000
H     3.774000000    -0.857000000     0.617000000
H     4.774000000    -1.204000000     1.699000000
O     4.674000000     2.319000000    -2.528000000
H     4.675000000     2.878000000    -3.305000000
H     4.491000000     2.916000000    -1.803000000
O    -3.198000000     1.452000000     5.079000000
H    -2.946000000     1.576000000     4.164000000
H    -2.374000000     1.497000000     5.563000000
O    -3.110000000    -0.676000000    -7.932000000
H    -4.005000000    -0.469000000    -7.664000000
H    -2.570000000    -0.419000000    -7.184000000
O     1.325000000     1.012000000     5.878000000
H     2.240000000     0.819000000     5.673000000
H     0.855000000     0.839000000     5.063000000
O     1.731000000    -2.959000000     4.052000000
H     1.867000000    -3.204000000     3.137000000
H     1.384000000    -2.068000000     4.013000000
O    -1.486000000    -3.323000000     3.193000000
H    -1.022000000    -2.498000000     3.051000000
H    -2.271000000    -3.254000000     2.650000000
O     2.630000000     6.273000000    -0.073000000
H     2.541000000     5.323000000    -0.141000000
H     3.233000000     6.406000000     0.658000000
O    -2.586000000    -3.330000000    -2.169000000
H    -2.622000000    -2.662000000    -1.484000000
H    -1.708000000    -3.243000000    -2.541000000
O    -1.794000000    -6.736000000     0.735000000
H    -1.454000000    -5.912000000     0.387000000
H    -2.715000000    -6.745000000     0.475000000
O    -2.038000000     0.149000000    -5.479000000
H    -2.033000000     1.036000000    -5.118000000
H    -2.632000000    -0.338000000    -4.909000000
O    -0.495000000    -5.919000000    -4.058000000
H    -1.231000000    -6.333000000    -3.608000000
H    -0.539000000    -5.000000000    -3.794000000
O     1.467000000     1.348000000    -4.341000000
H     1.327000000     2.266000000    -4.572000000
H     1.800000000     1.375000000    -3.444000000
O    -1.390000000    -4.224000000     6.288000000
H    -0.784000000    -3.600000000     6.688000000
H    -1.696000000    -3.786000000     5.494000000
O     3.327000000     0.725000000    -7.480000000
H     2.929000000     1.134000000    -6.711000000
H     3.518000000     1.457000000    -8.067000000
O    -2.066000000     2.687000000    -4.514000000
H    -1.819000000     3.612000000    -4.525000000
H    -2.913000000     2.671000000    -4.068000000
O     2.101000000     1.933000000     8.253000000
H     1.998000000     1.430000000     7.445000000
H     2.053000000     1.278000000     8.949000000
O     3.540000000     1.782000000     3.232000000
H     2.891000000     2.407000000     2.910000000
H     3.509000000     1.060000000     2.604000000
O    -0.015000000     6.461000000    -1.092000000
H     0.942000000     6.442000000    -1.066000000
H    -0.224000000     6.837000000    -1.947000000
O    -1.010000000     1.072000000     7.580000000
H    -0.175000000     1.277000000     7.159000000
H    -1.164000000     1.805000000     8.175000000
O    -2.172000000     6.392000000     2.880000000
H    -1.366000000     6.664000000     2.442000000
H    -1.925000000     5.609000000     3.372000000
O    -4.467000000     2.384000000    -2.793000000
H    -5.154000000     2.811000000    -2.282000000
H    -3.867000000     2.027000000    -2.138000000
O     0.425000000    -2.988000000    -7.187000000
H     0.406000000    -2.254000000    -7.801000000
H     0.627000000    -2.588000000    -6.342000000
O     1.434000000     3.406000000     2.595000000
H     1.043000000     4.159000000     3.038000000
H     0.878000000     2.667000000     2.842000000
O     0.516000000     4.432000000    -2.960000000
H    -0.391000000     4.656000000    -3.167000000
H     0.891000000     4.157000000    -3.797000000
O     4.396000000    -3.701000000     3.827000000
H     3.552000000    -3.268000000     3.959000000
H     4.327000000    -4.516000000     4.324000000
O     5.054000000    -0.161000000    -1.285000000
H     5.518000000     0.192000000    -0.525000000
H     4.799000000     0.611000000    -1.790000000
O    -1.670000000     4.612000000     0.424000000
H    -1.011000000     4.849000000    -0.228000000
H    -2.108000000     5.437000000     0.633000000
O    -4.072000000    -1.789000000     6.213000000
H    -4.509000000    -1.020000000     5.846000000
H    -3.141000000    -1.637000000     6.050000000
O    -2.564000000     2.435000000     2.396000000
H    -2.363000000     3.363000000     2.517000000
H    -1.788000000     1.977000000     2.719000000
O     2.670000000     3.464000000    -0.016000000
H     2.169000000     3.194000000    -0.785000000
H     2.279000000     2.975000000     0.708000000
O     2.370000000    -3.351000000     1.387000000
H     2.778000000    -2.489000000     1.461000000
H     3.073000000    -3.924000000     1.083000000
O    -1.759000000     5.305000000    -3.977000000
H    -1.217000000     5.746000000    -4.631000000
H    -2.338000000     5.991000000    -3.643000000
O     2.237000000    -4.027000000    -1.720000000
H     2.619000000    -4.874000000    -1.949000000
H     2.919000000    -3.587000000    -1.212000000
O    -4.128000000    -1.109000000    -3.269000000
H    -3.709000000    -1.945000000    -3.064000000
H    -4.709000000    -0.943000000    -2.526000000
O     1.856000000    -2.799000000     6.941000000
H     1.799000000    -3.229000000     6.088000000
H     2.772000000    -2.904000000     7.201000000
O     1.613000000     3.715000000    -5.506000000
H     2.308000000     4.307000000    -5.793000000
H     1.029000000     3.648000000    -6.261000000
O    -3.570000000    -2.818000000     1.580000000
H    -3.332000000    -2.188000000     0.900000000
H    -4.372000000    -2.464000000     1.964000000
O    -0.175000000    -5.822000000     2.968000000
H    -0.663000000    -5.878000000     2.146000000
H    -0.419000000    -4.972000000     3.333000000
O    -4.317000000     4.901000000    -1.041000000
H    -4.211000000     5.003000000    -0.095000000
H    -3.429000000     4.757000000    -1.367000000
