158
-3005.07707
C    -0.694000000    -0.577000000     1.178000000
H    -1.071000000    -1.056000000     2.079000000
C     0.611000000     0.058000000     1.218000000
H     1.154000000     0.005000000     2.158000000
C     1.117000000     0.528000000     0.019000000
H     2.116000000     0.855000000     0.049000000
C     0.419000000     0.452000000    -1.175000000
H     0.873000000     0.782000000    -2.106000000
C    -0.888000000    -0.153000000    -1.236000000
H    -1.419000000    -0.334000000    -2.167000000
C    -1.426000000    -0.617000000    -0.008000000
C    -2.764000000    -1.382000000     0.066000000
O    -3.167000000    -1.962000000     1.013000000
O    -3.332000000    -1.605000000    -0.970000000
O     6.351000000     2.474000000    -3.526000000
H     6.242000000     3.303000000    -3.992000000
H     7.202000000     2.551000000    -3.094000000
O    -0.631000000     2.825000000     3.157000000
H    -0.614000000     2.421000000     2.289000000
H    -1.238000000     3.560000000     3.067000000
O     1.449000000     4.026000000    -0.039000000
H     1.771000000     4.201000000    -0.923000000
H     0.519000000     4.250000000    -0.074000000
O    -3.727000000    -6.039000000    -1.339000000
H    -2.854000000    -6.040000000    -0.947000000
H    -4.104000000    -6.882000000    -1.086000000
O    -1.397000000    -3.983000000    -2.197000000
H    -0.942000000    -4.427000000    -1.482000000
H    -1.738000000    -3.181000000    -1.802000000
O    -1.811000000    -4.024000000     1.725000000
H    -1.688000000    -4.549000000     0.935000000
H    -2.264000000    -3.237000000     1.422000000
O    -5.084000000     1.326000000     4.519000000
H    -5.911000000     1.800000000     4.598000000
H    -5.178000000     0.812000000     3.717000000
O    -5.103000000     0.173000000     1.931000000
H    -4.816000000    -0.387000000     1.209000000
H    -6.025000000     0.350000000     1.745000000
O    -3.204000000    -6.713000000     2.997000000
H    -2.276000000    -6.912000000     3.115000000
H    -3.215000000    -5.965000000     2.399000000
O    -0.632000000    -5.521000000    -0.105000000
H    -0.306000000    -6.419000000    -0.165000000
H     0.110000000    -5.019000000     0.234000000
O    -6.967000000     0.545000000    -1.931000000
H    -7.909000000     0.399000000    -1.838000000
H    -6.567000000    -0.092000000    -1.340000000
O     4.286000000     0.319000000     1.459000000
H     3.995000000    -0.218000000     0.722000000
H     3.919000000     1.185000000     1.284000000
O     1.316000000    -2.270000000    -1.006000000
H     0.884000000    -1.465000000    -0.721000000
H     2.216000000    -2.005000000    -1.195000000
O    -5.757000000    -1.351000000    -0.641000000
H    -6.096000000    -2.144000000    -0.225000000
H    -4.828000000    -1.533000000    -0.779000000
O     6.266000000     0.117000000    -1.106000000
H     6.116000000     0.256000000    -2.041000000
H     6.920000000    -0.581000000    -1.070000000
O    -3.929000000    -2.458000000     3.887000000
H    -3.725000000    -2.256000000     2.974000000
H    -3.092000000    -2.730000000     4.265000000
O     0.495000000    -4.120000000     2.963000000
H     0.964000000    -4.532000000     2.238000000
H    -0.395000000    -3.995000000     2.633000000
O     1.176000000     2.263000000     6.784000000
H     1.872000000     2.579000000     6.208000000
H     0.805000000     1.512000000     6.321000000
O     3.088000000     2.175000000     4.479000000
H     2.901000000     2.501000000     3.599000000
H     3.952000000     1.770000000     4.407000000
O     1.962000000     4.734000000    -2.607000000
H     2.735000000     4.779000000    -3.169000000
H     1.731000000     5.648000000    -2.444000000
O    -4.235000000    -0.772000000     6.072000000
H    -4.148000000    -1.479000000     5.432000000
H    -4.615000000    -0.046000000     5.576000000
O     7.065000000     0.626000000     1.463000000
H     6.909000000     0.781000000     0.531000000
H     6.220000000     0.796000000     1.879000000
O    -6.392000000    -3.617000000     2.827000000
H    -5.790000000    -3.358000000     3.524000000
H    -5.854000000    -4.128000000     2.223000000
O    -1.833000000    -3.450000000     4.942000000
H    -2.124000000    -4.330000000     5.182000000
H    -0.910000000    -3.557000000     4.713000000
O    -7.743000000    -2.394000000    -3.752000000
H    -7.466000000    -2.588000000    -4.648000000
H    -7.107000000    -1.750000000    -3.440000000
O    -6.061000000    -0.044000000    -4.552000000
H    -6.320000000     0.320000000    -3.705000000
H    -5.139000000    -0.275000000    -4.441000000
O    -4.581000000     3.035000000     1.113000000
H    -3.638000000     3.198000000     1.133000000
H    -4.661000000     2.084000000     1.182000000
O    -0.170000000     0.447000000     5.103000000
H     0.324000000    -0.344000000     4.884000000
H    -0.317000000     0.878000000     4.261000000
O     3.969000000    -1.569000000    -0.396000000
H     4.115000000    -2.455000000    -0.065000000
H     4.805000000    -1.319000000    -0.789000000
O     1.750000000    -4.272000000     0.579000000
H     1.460000000    -3.579000000    -0.014000000
H     2.668000000    -4.067000000     0.756000000
O     1.965000000    -2.951000000    -3.747000000
H     1.501000000    -2.683000000    -2.954000000
H     1.834000000    -3.898000000    -3.793000000
O     1.819000000    -1.698000000     4.756000000
H     1.465000000    -2.582000000     4.664000000
H     2.526000000    -1.655000000     4.113000000
O    -2.823000000     2.122000000    -4.815000000
H    -2.556000000     1.371000000    -4.285000000
H    -2.029000000     2.650000000    -4.898000000
O    -2.961000000     4.073000000    -1.328000000
H    -3.695000000     4.662000000    -1.154000000
H    -3.370000000     3.229000000    -1.518000000
O    -4.917000000    -4.428000000     0.868000000
H    -4.446000000    -3.599000000     0.785000000
H    -5.122000000    -4.678000000    -0.033000000
O     3.081000000     1.462000000    -3.914000000
H     3.288000000     1.421000000    -4.848000000
H     3.677000000     2.124000000    -3.565000000
O    -0.598000000     3.344000000    -3.424000000
H     0.110000000     3.916000000    -3.130000000
H    -1.291000000     3.469000000    -2.775000000
O     4.313000000    -0.977000000     3.751000000
H     4.513000000    -0.652000000     2.873000000
H     4.558000000    -0.257000000     4.334000000
O     4.925000000    -0.951000000    -3.578000000
H     4.605000000    -1.195000000    -4.446000000
H     4.250000000    -0.370000000    -3.229000000
O    -0.162000000     2.079000000    -5.907000000
H    -0.411000000     2.269000000    -5.002000000
H     0.614000000     1.524000000    -5.831000000
O    -2.314000000    -2.020000000    -5.730000000
H    -2.571000000    -1.403000000    -6.415000000
H    -2.818000000    -2.812000000    -5.919000000
O    -1.485000000     2.536000000     0.421000000
H    -1.921000000     3.033000000    -0.271000000
H    -0.779000000     2.070000000    -0.027000000
O     3.206000000     3.403000000     1.885000000
H     4.001000000     3.598000000     1.389000000
H     2.492000000     3.583000000     1.274000000
O     4.140000000     6.717000000     0.107000000
H     3.350000000     6.185000000     0.200000000
H     4.500000000     6.464000000    -0.744000000
O     0.339000000    -1.382000000    -7.075000000
H     0.982000000    -2.025000000    -6.778000000
H    -0.407000000    -1.499000000    -6.487000000
O     1.208000000     5.075000000     3.514000000
H     1.881000000     4.592000000     3.035000000
H     0.610000000     4.399000000     3.833000000
O    -3.688000000    -0.811000000    -3.488000000
H    -3.071000000    -1.231000000    -4.086000000
H    -3.610000000    -1.308000000    -2.674000000
O    -4.227000000     1.814000000    -1.852000000
H    -3.914000000     1.044000000    -2.326000000
H    -5.164000000     1.657000000    -1.734000000
