158
-3004.93745
C    -0.629000000     0.780000000     1.177000000
H    -1.145000000     1.367000000     1.933000000
C    -0.320000000     1.253000000    -0.086000000
H    -0.588000000     2.251000000    -0.422000000
C     0.369000000     0.486000000    -1.033000000
H     0.548000000     0.830000000    -2.043000000
C     0.669000000    -0.834000000    -0.748000000
H     1.182000000    -1.391000000    -1.528000000
C     0.202000000    -1.361000000     0.446000000
H     0.329000000    -2.438000000     0.527000000
C    -0.381000000    -0.600000000     1.409000000
C    -0.883000000    -1.304000000     2.630000000
O    -1.754000000    -0.764000000     3.269000000
O    -0.584000000    -2.465000000     2.853000000
O     5.341000000     3.631000000    -2.251000000
H     5.049000000     3.314000000    -1.397000000
H     4.576000000     4.075000000    -2.617000000
O     0.936000000    -2.561000000    -5.513000000
H     0.031000000    -2.255000000    -5.583000000
H     1.344000000    -1.961000000    -4.890000000
O    -1.676000000     4.068000000     1.826000000
H    -1.325000000     3.942000000     2.707000000
H    -2.431000000     3.481000000     1.783000000
O    -0.460000000    -4.428000000    -0.763000000
H     0.488000000    -4.428000000    -0.635000000
H    -0.598000000    -3.871000000    -1.529000000
O    -2.870000000    -2.448000000     5.080000000
H    -2.538000000    -2.001000000     5.858000000
H    -2.602000000    -1.890000000     4.350000000
O    -4.851000000     0.970000000    -1.271000000
H    -4.583000000     1.887000000    -1.204000000
H    -5.751000000     0.959000000    -0.944000000
O    -2.723000000    -0.609000000    -1.967000000
H    -3.433000000    -0.064000000    -1.629000000
H    -1.941000000    -0.293000000    -1.514000000
O     3.603000000    -5.105000000    -3.160000000
H     3.173000000    -5.402000000    -2.358000000
H     3.971000000    -4.251000000    -2.933000000
O    -0.883000000    -3.116000000    -3.041000000
H    -0.619000000    -3.690000000    -3.760000000
H    -0.595000000    -2.245000000    -3.312000000
O    -3.667000000     6.386000000    -2.541000000
H    -3.064000000     5.900000000    -1.979000000
H    -3.315000000     7.275000000    -2.559000000
O    -4.002000000    -0.937000000     1.400000000
H    -3.961000000    -0.072000000     0.991000000
H    -3.313000000    -0.919000000     2.065000000
O    -0.564000000     0.974000000     5.170000000
H     0.321000000     0.611000000     5.192000000
H    -1.039000000     0.411000000     4.558000000
O     2.539000000    -0.549000000     2.084000000
H     1.733000000    -0.632000000     1.574000000
H     2.284000000    -0.041000000     2.854000000
O    -1.070000000    -4.881000000     1.960000000
H    -0.813000000    -4.044000000     2.347000000
H    -1.047000000    -4.724000000     1.016000000
O     1.988000000     0.086000000     4.880000000
H     2.071000000    -0.649000000     5.488000000
H     2.845000000     0.512000000     4.901000000
O     2.444000000     6.057000000    -0.574000000
H     2.595000000     5.838000000    -1.494000000
H     1.756000000     5.453000000    -0.294000000
O    -4.544000000    -4.819000000     1.107000000
H    -4.174000000    -4.234000000     0.446000000
H    -4.622000000    -4.277000000     1.892000000
O    -1.067000000     3.898000000     4.473000000
H    -0.615000000     4.520000000     5.043000000
H    -0.883000000     3.042000000     4.860000000
O    -0.834000000    -0.734000000    -4.622000000
H    -0.738000000     0.047000000    -4.076000000
H    -1.770000000    -0.932000000    -4.596000000
O     2.092000000    -0.776000000    -3.826000000
H     1.958000000     0.083000000    -4.226000000
H     2.775000000    -0.633000000    -3.171000000
O    -3.985000000     0.705000000     5.326000000
H    -4.412000000    -0.148000000     5.248000000
H    -3.205000000     0.535000000     5.854000000
O    -0.264000000    -4.528000000     7.118000000
H    -0.159000000    -3.780000000     7.705000000
H     0.024000000    -4.205000000     6.264000000
O    -1.348000000     2.094000000    -4.506000000
H    -1.697000000     1.747000000    -5.327000000
H    -2.124000000     2.280000000    -3.977000000
O     1.622000000     4.762000000     2.651000000
H     2.338000000     5.308000000     2.328000000
H     1.396000000     4.200000000     1.909000000
O     2.959000000     5.434000000    -3.295000000
H     3.080000000     4.793000000    -3.995000000
H     2.606000000     6.207000000    -3.737000000
O    -2.168000000    -0.748000000     6.989000000
H    -1.447000000    -0.195000000     6.687000000
H    -1.807000000    -1.224000000     7.738000000
O    -0.480000000     6.592000000     2.613000000
H     0.281000000     6.239000000     3.073000000
H    -0.791000000     5.865000000     2.073000000
O     1.917000000     4.254000000     5.279000000
H     1.717000000     5.097000000     5.687000000
H     1.529000000     4.313000000     4.406000000
O     3.398000000    -2.081000000    -6.687000000
H     3.073000000    -1.225000000    -6.968000000
H     2.684000000    -2.448000000    -6.166000000
O     0.221000000     4.841000000    -0.134000000
H    -0.303000000     5.366000000    -0.739000000
H    -0.421000000     4.431000000     0.445000000
O     4.697000000    -2.284000000    -4.080000000
H     4.234000000    -1.869000000    -4.808000000
H     4.816000000    -1.583000000    -3.440000000
O     1.616000000     1.831000000    -4.733000000
H     0.698000000     1.890000000    -4.469000000
H     1.854000000     2.727000000    -4.973000000
O     4.624000000    -2.211000000     3.317000000
H     4.044000000    -1.702000000     2.751000000
H     4.047000000    -2.572000000     3.989000000
O     4.541000000     0.113000000    -2.711000000
H     4.232000000     0.356000000    -1.838000000
H     5.230000000     0.748000000    -2.906000000
O    -2.868000000    -4.726000000     3.952000000
H    -2.299000000    -4.709000000     3.182000000
H    -2.877000000    -3.821000000     4.263000000
O    -3.561000000     1.709000000     2.641000000
H    -4.381000000     1.883000000     3.103000000
H    -3.009000000     1.270000000     3.288000000
O     3.512000000     1.315000000    -0.530000000
H     2.613000000     1.012000000    -0.657000000
H     3.532000000     1.633000000     0.373000000
O     2.204000000    -4.193000000    -0.371000000
H     2.842000000    -4.792000000     0.018000000
H     2.720000000    -3.429000000    -0.628000000
O    -5.656000000    -2.583000000     2.741000000
H    -5.747000000    -2.206000000     3.616000000
H    -5.052000000    -1.994000000     2.288000000
O    -3.922000000     4.435000000     5.074000000
H    -4.412000000     3.905000000     5.703000000
H    -3.024000000     4.108000000     5.134000000
O     0.713000000    -5.302000000    -3.988000000
H     0.974000000    -5.736000000    -3.175000000
H     1.539000000    -5.049000000    -4.400000000
O    -3.515000000    -2.125000000    -4.324000000
H    -4.321000000    -1.655000000    -4.539000000
H    -3.381000000    -1.956000000    -3.391000000
O     0.903000000    -3.699000000     4.626000000
H     0.331000000    -3.059000000     4.202000000
H     1.752000000    -3.260000000     4.683000000
O     3.593000000     2.437000000     1.941000000
H     3.539000000     2.139000000     2.849000000
H     3.409000000     3.376000000     1.985000000
O    -1.564000000    -7.294000000     4.195000000
H    -0.806000000    -7.097000000     3.645000000
H    -1.883000000    -6.438000000     4.480000000
O     1.271000000     0.152000000    -7.095000000
H     1.260000000     1.041000000    -6.740000000
H     0.753000000    -0.360000000    -6.473000000
O    -3.724000000    -2.957000000    -0.503000000
H    -3.205000000    -2.365000000    -1.047000000
H    -3.978000000    -2.426000000     0.253000000
O     1.578000000    -5.802000000     2.640000000
H     1.030000000    -5.368000000     1.987000000
H     1.395000000    -5.336000000     3.456000000
