158
-3028.62696
C    -0.831000000     0.417000000     1.213000000
H    -1.370000000     0.873000000     2.040000000
C    -0.315000000     1.246000000     0.172000000
H    -0.541000000     2.308000000     0.131000000
C     0.562000000     0.741000000    -0.837000000
H     1.003000000     1.338000000    -1.661000000
C     0.743000000    -0.625000000    -0.915000000
H     1.434000000    -0.961000000    -1.683000000
C     0.191000000    -1.453000000     0.104000000
H     0.414000000    -2.500000000    -0.080000000
C    -0.633000000    -0.948000000     1.137000000
C    -1.305000000    -1.873000000     2.059000000
O    -2.125000000    -1.490000000     2.881000000
O    -1.175000000    -3.087000000     1.983000000
O     3.766000000     2.812000000     0.396000000
H     4.045000000     2.196000000     1.073000000
H     3.761000000     3.664000000     0.833000000
O     0.247000000    -3.978000000    -3.479000000
H    -0.006000000    -3.354000000    -4.160000000
H     1.143000000    -3.732000000    -3.250000000
O     5.163000000     3.747000000    -3.061000000
H     5.890000000     3.469000000    -2.503000000
H     5.579000000     4.235000000    -3.771000000
O    -1.898000000     4.063000000     2.864000000
H    -1.842000000     3.454000000     3.600000000
H    -2.515000000     3.652000000     2.259000000
O    -0.112000000    -5.501000000    -1.291000000
H    -0.287000000    -4.816000000    -1.935000000
H     0.319000000    -6.195000000    -1.791000000
O    -2.242000000    -4.315000000     4.142000000
H    -2.626000000    -3.447000000     4.270000000
H    -1.571000000    -4.184000000     3.472000000
O    -5.002000000     0.340000000     0.047000000
H    -4.689000000     1.170000000     0.406000000
H    -5.878000000     0.233000000     0.417000000
O    -2.952000000     5.952000000    -1.429000000
H    -2.158000000     5.419000000    -1.473000000
H    -2.807000000     6.535000000    -0.683000000
O     3.090000000    -3.594000000     0.637000000
H     3.601000000    -3.295000000     1.389000000
H     2.269000000    -3.910000000     1.016000000
O     4.876000000     1.285000000    -1.757000000
H     4.581000000     1.754000000    -2.537000000
H     4.578000000     1.826000000    -1.025000000
O    -4.311000000    -2.193000000     1.162000000
H    -4.533000000    -1.269000000     1.054000000
H    -3.557000000    -2.191000000     1.751000000
O    -0.761000000    -1.156000000    -7.247000000
H    -0.190000000    -0.479000000    -7.611000000
H    -0.565000000    -1.156000000    -6.310000000
O    -1.154000000    -1.117000000     5.421000000
H    -0.522000000    -0.400000000     5.387000000
H    -1.357000000    -1.301000000     4.503000000
O     1.784000000    -2.593000000     5.395000000
H     1.809000000    -2.664000000     6.350000000
H     2.054000000    -1.693000000     5.215000000
O     2.409000000     3.083000000    -5.501000000
H     2.267000000     3.640000000    -4.736000000
H     3.089000000     3.534000000    -6.002000000
O    -1.155000000     3.857000000    -5.235000000
H    -0.831000000     4.728000000    -5.004000000
H    -2.103000000     3.965000000    -5.305000000
O     1.069000000     0.806000000    -7.362000000
H     0.551000000     1.346000000    -7.960000000
H     0.917000000     1.192000000    -6.499000000
O     2.955000000    -0.140000000     2.090000000
H     2.520000000    -0.444000000     1.294000000
H     2.307000000     0.419000000     2.518000000
O    -1.221000000    -5.664000000     1.117000000
H    -1.301000000    -4.783000000     1.481000000
H    -0.865000000    -5.529000000     0.238000000
O     0.999000000     0.476000000     5.593000000
H     1.514000000     0.254000000     6.369000000
H     1.586000000     1.014000000     5.062000000
O     2.915000000     5.267000000     1.437000000
H     2.787000000     5.780000000     0.640000000
H     2.029000000     5.064000000     1.737000000
O    -5.581000000     1.056000000     3.484000000
H    -5.275000000     0.222000000     3.841000000
H    -6.341000000     1.282000000     4.021000000
O    -2.188000000    -7.460000000     2.636000000
H    -1.565000000    -6.932000000     2.137000000
H    -1.717000000    -7.694000000     3.436000000
O    -1.873000000     1.699000000     4.524000000
H    -2.270000000     0.839000000     4.383000000
H    -1.537000000     1.663000000     5.420000000
O     4.149000000    -1.732000000    -4.041000000
H     3.645000000    -0.941000000    -3.851000000
H     3.771000000    -2.400000000    -3.469000000
O    -4.100000000    -1.443000000     4.521000000
H    -3.741000000    -1.063000000     5.323000000
H    -3.353000000    -1.493000000     3.924000000
O    -1.004000000    -6.143000000     5.892000000
H    -0.070000000    -6.038000000     5.711000000
H    -1.431000000    -5.488000000     5.341000000
O    -0.171000000     1.229000000    -4.573000000
H    -0.214000000     2.185000000    -4.546000000
H    -1.068000000     0.944000000    -4.395000000
O     2.321000000     2.304000000     3.794000000
H     1.941000000     3.032000000     3.302000000
H     3.266000000     2.425000000     3.709000000
O     2.440000000     4.702000000    -3.106000000
H     2.524000000     5.652000000    -3.185000000
H     3.337000000     4.391000000    -2.983000000
O    -1.634000000     6.771000000     2.724000000
H    -0.963000000     7.080000000     3.333000000
H    -1.640000000     5.821000000     2.837000000
O    -3.444000000     2.792000000    -2.724000000
H    -3.734000000     3.614000000    -3.119000000
H    -3.365000000     2.989000000    -1.791000000
O     0.733000000     4.736000000     2.693000000
H     0.658000000     5.323000000     3.445000000
H    -0.113000000     4.291000000     2.650000000
O     5.301000000    -4.884000000    -0.335000000
H     6.102000000    -4.403000000    -0.540000000
H     4.641000000    -4.203000000    -0.201000000
O     2.601000000     0.704000000    -4.154000000
H     1.698000000     0.822000000    -3.860000000
H     2.684000000     1.282000000    -4.913000000
O     3.928000000    -2.677000000     3.292000000
H     3.672000000    -1.835000000     2.917000000
H     3.124000000    -3.020000000     3.683000000
O     4.056000000    -1.178000000    -0.930000000
H     4.406000000    -1.267000000    -0.043000000
H     4.440000000    -0.365000000    -1.258000000
O    -0.145000000     5.254000000    -1.871000000
H     0.358000000     4.504000000    -2.187000000
H     0.420000000     5.665000000    -1.218000000
O    -4.483000000    -5.801000000     3.044000000
H    -3.772000000    -6.286000000     2.624000000
H    -4.047000000    -5.080000000     3.498000000
O    -4.082000000     2.624000000     1.618000000
H    -4.434000000     3.509000000     1.712000000
H    -4.643000000     2.083000000     2.174000000
O     2.790000000    -3.636000000    -2.318000000
H     2.971000000    -4.474000000    -1.893000000
H     2.787000000    -3.000000000    -1.603000000
O    -0.334000000     6.564000000    -4.377000000
H    -0.396000000     5.990000000    -3.614000000
H     0.587000000     6.822000000    -4.408000000
O    -6.097000000    -2.251000000     3.061000000
H    -5.451000000    -1.841000000     3.636000000
H    -5.675000000    -2.271000000     2.202000000
O    -0.116000000    -1.439000000    -4.601000000
H    -0.576000000    -1.795000000    -3.841000000
H    -0.061000000    -0.499000000    -4.428000000
O     1.255000000    -3.650000000     2.776000000
H     0.429000000    -3.336000000     2.409000000
H     1.129000000    -3.607000000     3.723000000
O    -3.417000000    -5.394000000    -0.974000000
H    -2.657000000    -5.587000000    -1.524000000
H    -3.044000000    -5.043000000    -0.165000000
O     1.393000000    -6.725000000     1.564000000
H     0.560000000    -6.483000000     1.159000000
H     1.712000000    -5.912000000     1.957000000
O    -2.971000000     0.702000000    -4.249000000
H    -3.181000000    -0.088000000    -3.751000000
H    -3.194000000     1.423000000    -3.660000000
