158
-3057.35464
C    -0.432000000    -0.558000000     1.310000000
H    -0.532000000    -1.052000000     2.273000000
C     0.368000000     0.594000000     1.101000000
H     0.821000000     1.158000000     1.913000000
C     0.635000000     1.018000000    -0.169000000
H     1.374000000     1.756000000    -0.384000000
C     0.148000000     0.372000000    -1.292000000
H     0.399000000     0.737000000    -2.285000000
C    -0.640000000    -0.808000000    -1.083000000
H    -1.125000000    -1.323000000    -1.907000000
C    -0.884000000    -1.259000000     0.204000000
C    -1.651000000    -2.587000000     0.492000000
O    -2.119000000    -2.853000000     1.562000000
O    -1.821000000    -3.288000000    -0.442000000
O    -1.817000000    -3.811000000     5.953000000
H    -1.148000000    -4.461000000     6.170000000
H    -1.354000000    -2.973000000     5.978000000
O     2.648000000     1.040000000     4.656000000
H     2.295000000     0.161000000     4.798000000
H     1.900000000     1.551000000     4.347000000
O    -0.703000000    -4.937000000     2.592000000
H    -0.035000000    -4.380000000     2.992000000
H    -1.313000000    -4.323000000     2.184000000
O    -3.085000000    -2.133000000    -4.158000000
H    -2.606000000    -2.912000000    -3.876000000
H    -3.943000000    -2.216000000    -3.741000000
O    -0.884000000    -7.239000000     4.052000000
H    -1.804000000    -7.281000000     4.313000000
H    -0.838000000    -6.491000000     3.457000000
O    -3.285000000     0.152000000     3.349000000
H    -3.464000000    -0.571000000     2.748000000
H    -2.410000000    -0.031000000     3.690000000
O    -1.720000000    -4.411000000    -2.733000000
H    -0.804000000    -4.686000000    -2.745000000
H    -1.796000000    -3.866000000    -1.949000000
O     1.943000000    -1.604000000     4.780000000
H     1.744000000    -1.795000000     5.697000000
H     2.360000000    -2.402000000     4.455000000
O    -4.710000000    -2.006000000     1.687000000
H    -5.026000000    -2.358000000     2.519000000
H    -3.923000000    -2.516000000     1.494000000
O     0.867000000    -4.859000000    -2.564000000
H     1.677000000    -4.514000000    -2.188000000
H     0.868000000    -5.786000000    -2.326000000
O    -1.373000000     3.072000000    -3.678000000
H    -0.429000000     2.954000000    -3.782000000
H    -1.744000000     2.210000000    -3.867000000
O    -1.143000000     6.349000000    -1.012000000
H    -0.473000000     5.665000000    -1.008000000
H    -1.888000000     5.952000000    -1.464000000
O    -1.503000000     4.603000000     2.884000000
H    -2.171000000     3.959000000     2.645000000
H    -1.793000000     5.414000000     2.465000000
O    -6.751000000     0.009000000     1.788000000
H    -7.581000000    -0.459000000     1.702000000
H    -6.114000000    -0.671000000     2.007000000
O    -5.369000000    -6.373000000     1.351000000
H    -6.154000000    -5.905000000     1.066000000
H    -4.698000000    -6.125000000     0.714000000
O    -2.886000000     3.964000000    -1.479000000
H    -3.046000000     3.179000000    -0.955000000
H    -2.236000000     3.691000000    -2.126000000
O    -0.843000000    -1.225000000     4.803000000
H     0.102000000    -1.288000000     4.661000000
H    -0.936000000    -0.590000000     5.514000000
O     2.876000000     5.566000000     0.316000000
H     2.860000000     6.203000000    -0.399000000
H     2.195000000     5.865000000     0.918000000
O    -3.479000000    -6.071000000     3.718000000
H    -3.862000000    -6.211000000     2.852000000
H    -3.515000000    -5.123000000     3.846000000
O     1.287000000     2.962000000    -3.873000000
H     1.179000000     2.315000000    -4.570000000
H     2.114000000     3.398000000    -4.077000000
O    -3.292000000     2.698000000     2.503000000
H    -3.447000000     1.825000000     2.863000000
H    -4.134000000     2.954000000     2.127000000
O    -2.627000000     1.409000000    -0.127000000
H    -2.740000000     1.887000000     0.695000000
H    -1.682000000     1.281000000    -0.202000000
O    -0.419000000    -6.260000000     0.139000000
H    -0.699000000    -5.952000000     1.001000000
H    -0.938000000    -5.745000000    -0.480000000
O     4.148000000     3.302000000    -3.003000000
H     4.447000000     4.211000000    -2.960000000
H     4.269000000     2.969000000    -2.114000000
O     2.009000000     6.095000000    -3.403000000
H     1.069000000     6.269000000    -3.354000000
H     2.247000000     6.312000000    -4.304000000
O     2.163000000    -1.444000000    -4.132000000
H     3.012000000    -1.055000000    -3.921000000
H     2.068000000    -2.164000000    -3.509000000
O     0.455000000     2.809000000     4.405000000
H    -0.219000000     3.280000000     3.914000000
H     0.957000000     3.497000000     4.842000000
O     4.299000000     0.396000000    -3.586000000
H     4.290000000     1.353000000    -3.612000000
H     5.226000000     0.167000000    -3.523000000
O    -3.514000000    -5.452000000    -0.377000000
H    -2.810000000    -4.810000000    -0.471000000
H    -3.869000000    -5.550000000    -1.261000000
O    -5.529000000    -1.407000000    -0.891000000
H    -5.184000000    -1.459000000     0.000000000
H    -5.576000000    -0.469000000    -1.075000000
O     5.402000000     0.843000000    -0.825000000
H     4.949000000     0.750000000    -1.663000000
H     4.980000000     1.593000000    -0.406000000
O     0.793000000     4.382000000    -1.362000000
H     0.948000000     3.962000000    -2.208000000
H     1.665000000     4.488000000    -0.983000000
O     2.855000000    -3.384000000    -1.489000000
H     3.765000000    -3.623000000    -1.666000000
H     2.718000000    -3.624000000    -0.573000000
O    -3.506000000    -3.437000000     3.699000000
H    -2.884000000    -3.149000000     4.367000000
H    -3.016000000    -3.391000000     2.879000000
O    -5.777000000    -2.466000000    -3.295000000
H    -6.611000000    -2.004000000    -3.210000000
H    -5.373000000    -2.392000000    -2.430000000
O     5.573000000     2.555000000     2.140000000
H     5.251000000     1.659000000     2.033000000
H     5.953000000     2.569000000     3.018000000
O    -2.030000000    -8.640000000    -0.333000000
H    -1.658000000    -7.765000000    -0.442000000
H    -1.417000000    -9.091000000     0.247000000
O     0.014000000     0.204000000    -5.178000000
H     0.640000000    -0.396000000    -4.772000000
H     0.271000000     0.231000000    -6.099000000
O    -1.212000000    -4.870000000    -5.808000000
H    -1.243000000    -4.171000000    -6.461000000
H    -1.441000000    -4.440000000    -4.985000000
O     2.701000000    -3.821000000     1.431000000
H     2.645000000    -2.866000000     1.397000000
H     2.300000000    -4.055000000     2.268000000
O     0.669000000     6.267000000     1.671000000
H     0.184000000     5.442000000     1.648000000
H     0.417000000     6.670000000     2.502000000
O     2.568000000    -1.291000000     0.740000000
H     1.628000000    -1.219000000     0.905000000
H     2.681000000    -0.960000000    -0.150000000
O    -2.431000000     0.637000000    -4.483000000
H    -1.501000000     0.550000000    -4.690000000
H    -2.759000000    -0.262000000    -4.471000000
O     4.529000000    -0.077000000     2.302000000
H     4.009000000    -0.435000000     1.582000000
H     3.927000000    -0.058000000     3.046000000
O     4.595000000     3.548000000    -0.166000000
H     5.016000000     3.247000000     0.639000000
H     3.992000000     4.234000000     0.121000000
O    -1.211000000     1.330000000     6.147000000
H    -0.291000000     1.558000000     6.282000000
H    -1.540000000     2.002000000     5.551000000
O     1.562000000    -3.558000000    -5.764000000
H     1.534000000    -2.698000000    -5.343000000
H     0.642000000    -3.804000000    -5.866000000
O    -4.992000000     1.238000000    -1.559000000
H    -4.416000000     0.999000000    -2.285000000
H    -4.396000000     1.461000000    -0.843000000
