158
-3044.04053
C    -0.613000000    -0.787000000     1.124000000
H    -1.019000000    -1.256000000     2.016000000
C     0.648000000    -0.161000000     1.203000000
H     1.174000000    -0.229000000     2.152000000
C     1.161000000     0.528000000     0.082000000
H     2.122000000     1.067000000     0.198000000
C     0.416000000     0.564000000    -1.083000000
H     0.715000000     1.227000000    -1.890000000
C    -0.768000000    -0.200000000    -1.157000000
H    -1.310000000    -0.271000000    -2.096000000
C    -1.345000000    -0.837000000    -0.081000000
C    -2.735000000    -1.482000000    -0.248000000
O    -3.299000000    -1.956000000     0.726000000
O    -3.430000000    -1.522000000    -1.256000000
O     5.311000000     0.605000000    -3.829000000
H     4.527000000     1.120000000    -4.020000000
H     5.648000000     0.975000000    -3.014000000
O     1.812000000     6.037000000     2.794000000
H     1.265000000     5.588000000     2.149000000
H     2.163000000     6.794000000     2.326000000
O    -3.024000000    -4.048000000    -2.754000000
H    -2.152000000    -3.960000000    -2.369000000
H    -3.597000000    -3.559000000    -2.165000000
O    -1.589000000    -3.840000000     1.484000000
H    -1.181000000    -4.146000000     0.674000000
H    -2.126000000    -3.094000000     1.215000000
O    -4.970000000     1.040000000     4.609000000
H    -5.872000000     0.946000000     4.301000000
H    -4.499000000     0.318000000     4.195000000
O    -3.735000000    -0.829000000     3.051000000
H    -3.615000000    -1.140000000     2.154000000
H    -3.916000000    -1.620000000     3.558000000
O    -2.638000000    -6.072000000     2.460000000
H    -1.820000000    -6.392000000     2.839000000
H    -2.459000000    -5.158000000     2.240000000
O    -0.593000000    -3.896000000    -1.443000000
H    -0.214000000    -4.644000000    -0.982000000
H     0.045000000    -3.192000000    -1.323000000
O    -5.049000000     0.326000000    -0.231000000
H    -4.804000000     0.667000000     0.629000000
H    -4.512000000    -0.460000000    -0.338000000
O     5.818000000     1.799000000     1.340000000
H     5.912000000     1.008000000     0.810000000
H     4.892000000     2.030000000     1.264000000
O     1.956000000    -2.504000000    -0.299000000
H     1.932000000    -1.548000000    -0.253000000
H     2.540000000    -2.694000000    -1.033000000
O    -6.375000000    -2.366000000    -1.965000000
H    -6.139000000    -3.185000000    -1.530000000
H    -5.536000000    -1.975000000    -2.211000000
O     0.037000000    -3.628000000     3.754000000
H     0.861000000    -3.446000000     3.302000000
H    -0.556000000    -3.922000000     3.062000000
O     2.984000000     2.190000000     4.659000000
H     2.838000000     1.310000000     5.006000000
H     3.895000000     2.385000000     4.876000000
O     1.091000000     6.296000000    -2.143000000
H     0.651000000     7.125000000    -1.955000000
H     1.929000000     6.551000000    -2.529000000
O     0.673000000     4.895000000     0.622000000
H     1.131000000     5.285000000    -0.123000000
H    -0.029000000     4.377000000     0.227000000
O     3.604000000     2.551000000    -4.692000000
H     3.392000000     2.384000000    -5.610000000
H     2.945000000     3.183000000    -4.404000000
O    -7.723000000    -3.992000000     0.754000000
H    -6.824000000    -4.262000000     0.562000000
H    -8.221000000    -4.253000000    -0.020000000
O     3.653000000    -0.776000000     5.680000000
H     4.268000000    -0.577000000     4.973000000
H     4.003000000    -1.569000000     6.086000000
O    -1.935000000    -0.605000000     7.022000000
H    -1.615000000     0.004000000     6.357000000
H    -2.069000000    -1.427000000     6.550000000
O    -5.871000000    -3.158000000     2.984000000
H    -6.810000000    -2.997000000     2.891000000
H    -5.651000000    -2.804000000     3.846000000
O    -5.708000000    -6.110000000     2.380000000
H    -4.766000000    -6.141000000     2.545000000
H    -5.914000000    -5.176000000     2.337000000
O     6.859000000     4.244000000     0.325000000
H     5.992000000     4.449000000    -0.023000000
H     6.728000000     3.450000000     0.843000000
O    -1.837000000    -3.448000000     5.929000000
H    -1.288000000    -3.445000000     5.145000000
H    -2.049000000    -4.370000000     6.070000000
O    -5.231000000     1.074000000    -3.104000000
H    -5.613000000     0.719000000    -2.301000000
H    -4.983000000     0.303000000    -3.613000000
O    -2.962000000     1.998000000     2.148000000
H    -2.006000000     2.019000000     2.099000000
H    -3.161000000     1.182000000     2.608000000
O    -0.584000000     1.275000000     5.563000000
H     0.120000000     0.645000000     5.404000000
H    -0.343000000     2.040000000     5.039000000
O    -3.853000000     2.770000000    -5.574000000
H    -4.409000000     2.699000000    -4.798000000
H    -3.333000000     1.966000000    -5.569000000
O     5.757000000    -0.992000000    -0.075000000
H     5.257000000    -1.604000000     0.465000000
H     5.185000000    -0.809000000    -0.821000000
O     2.510000000    -3.004000000     2.314000000
H     2.249000000    -2.699000000     1.445000000
H     3.356000000    -2.584000000     2.472000000
O    -4.439000000    -3.763000000    -5.570000000
H    -3.760000000    -4.159000000    -5.024000000
H    -4.524000000    -4.358000000    -6.315000000
O     0.998000000    -0.890000000     5.183000000
H     0.698000000    -1.594000000     4.608000000
H     1.949000000    -0.990000000     5.208000000
O    -5.038000000    -4.021000000     0.089000000
H    -4.484000000    -3.249000000     0.205000000
H    -4.799000000    -4.598000000     0.813000000
O     2.504000000     0.289000000    -3.404000000
H     1.877000000    -0.036000000    -4.050000000
H     2.607000000     1.217000000    -3.617000000
O    -0.760000000     4.922000000    -3.771000000
H    -0.144000000     5.605000000    -3.507000000
H    -1.562000000     5.123000000    -3.288000000
O    -1.665000000    -1.570000000    -4.019000000
H    -1.416000000    -2.415000000    -4.394000000
H    -2.308000000    -1.788000000    -3.344000000
O     5.774000000     0.605000000     4.094000000
H     5.890000000     1.174000000     3.333000000
H     6.013000000     1.153000000     4.842000000
O     3.831000000    -1.389000000    -1.951000000
H     4.548000000    -1.724000000    -2.491000000
H     3.309000000    -0.856000000    -2.550000000
O     6.825000000     1.351000000    -1.639000000
H     7.724000000     1.044000000    -1.756000000
H     6.915000000     2.281000000    -1.430000000
O     0.664000000     2.685000000    -5.101000000
H     0.478000000     3.420000000    -4.517000000
H     0.057000000     1.999000000    -4.825000000
O    -8.045000000    -1.233000000     0.016000000
H    -7.711000000    -1.672000000     0.798000000
H    -7.544000000    -1.615000000    -0.705000000
O    -2.451000000     0.482000000    -5.562000000
H    -2.540000000    -0.038000000    -6.361000000
H    -2.338000000    -0.165000000    -4.866000000
O    -1.207000000     3.098000000    -0.602000000
H    -1.418000000     3.263000000    -1.521000000
H    -0.962000000     2.173000000    -0.574000000
O     3.403000000     2.786000000     1.818000000
H     3.214000000     2.663000000     2.748000000
H     2.779000000     3.454000000     1.533000000
O     5.130000000    -1.994000000     2.686000000
H     5.572000000    -1.330000000     3.215000000
H     5.547000000    -2.818000000     2.940000000
O     4.531000000     4.640000000    -0.825000000
H     3.825000000     4.099000000    -0.473000000
H     4.143000000     5.075000000    -1.585000000
O    -4.497000000    -1.380000000    -4.025000000
H    -4.519000000    -2.045000000    -4.713000000
H    -4.045000000    -1.804000000    -3.296000000
O    -2.250000000     2.362000000    -3.093000000
H    -2.401000000     3.115000000    -3.665000000
H    -3.101000000     1.927000000    -3.041000000
