158
-3006.53883
C    -0.590000000    -0.610000000     1.314000000
H    -1.120000000    -0.941000000     2.204000000
C    -0.220000000     0.747000000     1.153000000
H    -0.446000000     1.498000000     1.906000000
C     0.270000000     1.183000000    -0.078000000
H     0.497000000     2.212000000    -0.132000000
C     0.583000000     0.291000000    -1.138000000
H     0.863000000     0.643000000    -2.127000000
C     0.305000000    -1.021000000    -0.994000000
H     0.487000000    -1.726000000    -1.802000000
C    -0.261000000    -1.480000000     0.226000000
C    -0.637000000    -2.974000000     0.308000000
O    -0.774000000    -3.482000000     1.403000000
O    -0.736000000    -3.679000000    -0.684000000
O    -0.278000000     6.996000000    -2.033000000
H    -1.144000000     6.997000000    -2.440000000
H     0.029000000     6.094000000    -2.126000000
O    -1.254000000     6.993000000     3.460000000
H    -1.532000000     6.242000000     3.984000000
H    -0.671000000     6.621000000     2.798000000
O    -0.955000000     1.888000000     4.968000000
H    -0.338000000     1.157000000     4.941000000
H    -1.818000000     1.472000000     4.982000000
O    -2.097000000    -6.519000000     3.061000000
H    -2.996000000    -6.759000000     3.286000000
H    -2.154000000    -6.193000000     2.163000000
O     0.843000000    -5.397000000     1.853000000
H     0.313000000    -6.189000000     1.941000000
H     0.239000000    -4.743000000     1.498000000
O    -0.470000000    -5.324000000     4.899000000
H    -0.022000000    -4.490000000     4.764000000
H    -1.010000000    -5.435000000     4.116000000
O    -4.721000000    -1.510000000    -0.913000000
H    -5.624000000    -1.465000000    -1.226000000
H    -4.303000000    -0.729000000    -1.275000000
O     0.680000000    -5.401000000    -2.162000000
H     1.577000000    -5.271000000    -1.854000000
H     0.184000000    -4.686000000    -1.764000000
O     0.638000000    -0.374000000     4.859000000
H     0.628000000    -0.820000000     5.706000000
H     1.540000000    -0.068000000     4.761000000
O     0.341000000    -2.944000000     3.811000000
H     0.535000000    -2.007000000     3.797000000
H    -0.110000000    -3.107000000     2.982000000
O    -2.754000000    -1.148000000    -3.478000000
H    -3.013000000    -0.374000000    -2.978000000
H    -2.475000000    -0.802000000    -4.326000000
O    -5.174000000    -5.936000000    -1.880000000
H    -5.993000000    -5.452000000    -1.992000000
H    -4.514000000    -5.259000000    -1.733000000
O    -4.429000000    -1.413000000     1.976000000
H    -4.651000000    -1.503000000     1.049000000
H    -3.982000000    -2.231000000     2.195000000
O     0.248000000     4.269000000    -2.710000000
H     1.059000000     3.821000000    -2.951000000
H    -0.447000000     3.698000000    -3.035000000
O    -3.317000000     5.526000000     0.392000000
H    -3.882000000     5.040000000    -0.209000000
H    -3.180000000     6.370000000    -0.039000000
O     4.986000000     1.592000000    -3.174000000
H     4.882000000     1.318000000    -4.085000000
H     5.290000000     2.498000000    -3.229000000
O     3.056000000    -3.475000000     3.419000000
H     2.114000000    -3.576000000     3.286000000
H     3.268000000    -4.097000000     4.115000000
O    -3.511000000    -3.953000000    -1.141000000
H    -2.626000000    -3.589000000    -1.111000000
H    -4.085000000    -3.201000000    -1.000000000
O    -3.065000000    -3.490000000     2.755000000
H    -2.369000000    -3.550000000     2.100000000
H    -2.603000000    -3.447000000     3.592000000
O    -2.116000000    -5.842000000     0.376000000
H    -1.417000000    -5.217000000     0.185000000
H    -2.896000000    -5.461000000    -0.027000000
O    -3.064000000    -2.526000000     6.610000000
H    -3.128000000    -3.196000000     7.291000000
H    -2.392000000    -2.856000000     6.013000000
O    -3.805000000     0.942000000    -1.811000000
H    -3.327000000     1.598000000    -1.304000000
H    -3.892000000     1.330000000    -2.682000000
O     3.205000000     3.552000000     3.695000000
H     3.528000000     4.154000000     3.025000000
H     3.871000000     3.578000000     4.382000000
O     0.725000000    -7.933000000     3.356000000
H     0.386000000    -7.074000000     3.609000000
H     0.065000000    -8.552000000     3.668000000
O    -0.303000000     4.109000000     3.763000000
H    -0.474000000     3.321000000     4.277000000
H     0.436000000     4.528000000     4.204000000
O    -1.693000000     3.233000000    -4.193000000
H    -1.313000000     3.316000000    -5.068000000
H    -2.542000000     2.817000000    -4.340000000
O     0.055000000    -7.940000000    -2.923000000
H     0.920000000    -8.296000000    -2.721000000
H     0.165000000    -6.991000000    -2.861000000
O     1.727000000     0.197000000    -4.364000000
H     0.781000000     0.248000000    -4.227000000
H     1.823000000    -0.140000000    -5.254000000
O     4.658000000     5.097000000     2.036000000
H     5.543000000     4.734000000     2.063000000
H     4.235000000     4.644000000     1.307000000
O     1.394000000    -1.888000000    -6.440000000
H     2.207000000    -1.748000000    -6.926000000
H     1.622000000    -2.538000000    -5.775000000
O    -2.619000000     6.179000000    -3.649000000
H    -2.060000000     5.465000000    -3.340000000
H    -2.637000000     6.074000000    -4.600000000
O    -1.374000000    -3.922000000    -3.946000000
H    -2.257000000    -3.967000000    -3.578000000
H    -1.143000000    -2.995000000    -3.901000000
O     3.938000000    -1.460000000    -2.504000000
H     4.810000000    -1.066000000    -2.493000000
H     3.371000000    -0.777000000    -2.863000000
O     2.355000000     3.162000000    -4.356000000
H     2.010000000     3.114000000    -5.247000000
H     2.818000000     2.333000000    -4.233000000
O     5.575000000     0.251000000     0.818000000
H     5.707000000     0.097000000    -0.117000000
H     4.724000000     0.686000000     0.871000000
O     3.141000000     0.725000000     4.481000000
H     2.961000000     1.599000000     4.135000000
H     3.758000000     0.873000000     5.197000000
O     3.764000000     4.885000000    -1.808000000
H     3.658000000     4.498000000    -2.677000000
H     3.336000000     5.739000000    -1.872000000
O    -4.921000000     1.226000000     2.740000000
H    -4.074000000     1.656000000     2.617000000
H    -4.762000000     0.312000000     2.506000000
O    -2.503000000    -8.362000000    -0.766000000
H    -2.536000000    -7.578000000    -0.217000000
H    -1.786000000    -8.196000000    -1.378000000
O    -0.788000000    -0.742000000    -5.520000000
H     0.057000000    -1.062000000    -5.835000000
H    -1.416000000    -1.033000000    -6.181000000
O     3.335000000    -4.567000000     0.233000000
H     3.757000000    -3.751000000     0.503000000
H     2.756000000    -4.789000000     0.962000000
O     1.454000000     6.773000000     0.592000000
H     0.689000000     6.332000000     0.961000000
H     1.308000000     6.756000000    -0.354000000
O     4.370000000    -4.153000000    -2.394000000
H     4.323000000    -4.310000000    -1.451000000
H     4.112000000    -3.237000000    -2.497000000
O     2.726000000     0.464000000     0.726000000
H     1.872000000     0.650000000     1.117000000
H     2.526000000     0.201000000    -0.172000000
O     1.296000000    -5.160000000    -4.798000000
H     1.625000000    -6.017000000    -4.524000000
H     0.587000000    -4.968000000    -4.185000000
O    -0.559000000     5.102000000     0.970000000
H    -0.134000000     4.434000000     1.509000000
H    -1.426000000     4.743000000     0.783000000
O     3.112000000     3.479000000     0.623000000
H     3.128000000     3.875000000    -0.248000000
H     2.749000000     2.605000000     0.483000000
O    -2.752000000     2.851000000     2.647000000
H    -2.431000000     3.326000000     1.881000000
H    -1.959000000     2.573000000     3.106000000
