158
-3034.05756
C     0.966000000     1.117000000     0.177000000
H     1.648000000     1.938000000     0.387000000
C     0.099000000     0.564000000     1.186000000
H     0.034000000     0.969000000     2.193000000
C    -0.727000000    -0.530000000     0.883000000
H    -1.484000000    -1.011000000     1.620000000
C    -0.773000000    -1.015000000    -0.415000000
H    -1.423000000    -1.839000000    -0.695000000
C     0.144000000    -0.496000000    -1.398000000
H     0.174000000    -1.063000000    -2.325000000
C     1.004000000     0.528000000    -1.074000000
C     1.948000000     1.069000000    -2.172000000
O     2.004000000     0.449000000    -3.234000000
O     2.544000000     2.130000000    -2.026000000
O     1.347000000    -2.784000000     6.798000000
H     1.235000000    -2.429000000     5.916000000
H     0.474000000    -3.090000000     7.046000000
O    -4.166000000    -0.542000000    -1.523000000
H    -3.955000000    -1.469000000    -1.415000000
H    -3.679000000    -0.275000000    -2.303000000
O    -3.497000000    -0.488000000     3.415000000
H    -2.643000000    -0.347000000     3.824000000
H    -3.622000000    -1.437000000     3.443000000
O    -1.870000000    -1.747000000    -3.403000000
H    -1.171000000    -2.401000000    -3.388000000
H    -1.444000000    -0.948000000    -3.713000000
O    -4.618000000     1.741000000     4.738000000
H    -5.446000000     1.485000000     5.145000000
H    -4.482000000     1.094000000     4.046000000
O     1.077000000     6.091000000     1.140000000
H     1.024000000     6.267000000     2.079000000
H     0.205000000     5.774000000     0.905000000
O     4.863000000     3.006000000    -1.062000000
H     4.029000000     2.659000000    -1.378000000
H     4.624000000     3.784000000    -0.559000000
O    -0.549000000    -0.315000000     6.302000000
H    -0.948000000    -1.084000000     5.896000000
H    -1.001000000     0.429000000     5.903000000
O    -2.450000000    -2.424000000     4.984000000
H    -2.994000000    -2.602000000     5.752000000
H    -2.244000000    -3.290000000     4.632000000
O     2.346000000     4.010000000    -4.442000000
H     1.958000000     3.387000000    -5.056000000
H     2.655000000     3.469000000    -3.715000000
O    -6.938000000     1.239000000     1.244000000
H    -7.126000000     1.013000000     2.155000000
H    -6.050000000     0.915000000     1.095000000
O    -4.127000000     3.068000000     0.310000000
H    -3.249000000     2.730000000     0.133000000
H    -4.595000000     2.327000000     0.697000000
O    -0.641000000    -4.443000000     3.853000000
H     0.132000000    -3.925000000     4.079000000
H    -0.890000000    -4.134000000     2.982000000
O     2.935000000    -2.052000000    -3.338000000
H     3.439000000    -2.091000000    -2.526000000
H     2.525000000    -1.187000000    -3.325000000
O     6.773000000     0.861000000    -3.863000000
H     6.564000000    -0.031000000    -4.138000000
H     5.988000000     1.367000000    -4.074000000
O     0.943000000     4.206000000    -1.232000000
H     1.508000000     3.663000000    -1.782000000
H     1.550000000     4.695000000    -0.675000000
O     4.169000000     1.472000000    -4.330000000
H     3.503000000     1.205000000    -3.696000000
H     3.722000000     1.436000000    -5.176000000
O     0.761000000    -4.467000000    -0.954000000
H     0.763000000    -5.420000000    -0.860000000
H     1.609000000    -4.191000000    -0.607000000
O     5.970000000    -0.595000000    -6.006000000
H     5.192000000    -0.155000000    -6.350000000
H     6.704000000    -0.090000000    -6.355000000
O     1.852000000    -2.097000000     1.446000000
H     1.202000000    -1.524000000     1.040000000
H     2.695000000    -1.728000000     1.182000000
O     2.399000000     1.685000000     6.075000000
H     2.389000000     0.786000000     6.402000000
H     2.142000000     1.608000000     5.156000000
O    -1.692000000     5.402000000     2.707000000
H    -2.480000000     5.006000000     3.079000000
H    -1.028000000     4.715000000     2.767000000
O     0.735000000     4.452000000     3.973000000
H     0.997000000     4.120000000     4.831000000
H     1.449000000     5.033000000     3.712000000
O    -3.015000000     1.280000000    -3.805000000
H    -2.216000000     0.945000000    -4.212000000
H    -2.888000000     2.228000000    -3.773000000
O     3.360000000     2.430000000     2.364000000
H     4.026000000     2.737000000     2.980000000
H     2.532000000     2.731000000     2.737000000
O     2.084000000    -2.566000000     4.205000000
H     2.887000000    -3.070000000     4.339000000
H     2.160000000    -2.227000000     3.314000000
O    -3.024000000    -1.802000000    -6.188000000
H    -3.488000000    -2.626000000    -6.338000000
H    -2.423000000    -1.993000000    -5.469000000
O    -1.360000000    -3.709000000     1.312000000
H    -1.466000000    -4.631000000     1.077000000
H    -0.703000000    -3.380000000     0.699000000
O    -4.493000000     0.498000000     1.038000000
H    -4.274000000     0.106000000     0.193000000
H    -4.015000000    -0.030000000     1.678000000
O     7.192000000     1.456000000    -0.952000000
H     6.311000000     1.823000000    -1.020000000
H     7.470000000     1.330000000    -1.860000000
O     0.077000000    -1.846000000    -6.299000000
H     0.070000000    -1.111000000    -6.913000000
H     0.072000000    -1.436000000    -5.434000000
O    -6.343000000    -3.245000000    -0.604000000
H    -5.497000000    -3.401000000    -1.026000000
H    -6.214000000    -3.525000000     0.302000000
O    -2.885000000    -6.191000000     1.439000000
H    -2.695000000    -7.038000000     1.842000000
H    -3.806000000    -6.247000000     1.186000000
O    -1.933000000     2.127000000     5.445000000
H    -2.861000000     2.234000000     5.237000000
H    -1.788000000     2.702000000     6.196000000
O    -2.045000000    -5.789000000     5.567000000
H    -1.525000000    -5.277000000     4.948000000
H    -2.938000000    -5.746000000     5.224000000
O    -2.304000000     3.920000000    -3.189000000
H    -1.671000000     4.579000000    -3.475000000
H    -1.883000000     3.492000000    -2.444000000
O     0.280000000    -3.477000000    -3.789000000
H     0.351000000    -4.360000000    -3.425000000
H     1.154000000    -3.101000000    -3.676000000
O     3.249000000    -3.882000000    -5.157000000
H     3.640000000    -3.578000000    -5.976000000
H     3.152000000    -3.090000000    -4.629000000
O     1.461000000     2.115000000    -6.226000000
H     2.283000000     1.749000000    -6.552000000
H     0.906000000     2.186000000    -7.003000000
O     4.149000000     5.899000000    -5.378000000
H     3.450000000     5.314000000    -5.086000000
H     3.901000000     6.758000000    -5.035000000
O     4.066000000     0.342000000     0.597000000
H     3.978000000     1.093000000     0.011000000
H     3.955000000     0.708000000     1.475000000
O    -0.643000000    -4.418000000    -6.457000000
H    -0.244000000    -3.789000000    -5.856000000
H    -0.976000000    -3.882000000    -7.177000000
O    -3.577000000    -3.343000000    -1.537000000
H    -3.027000000    -2.857000000    -2.153000000
H    -3.870000000    -4.109000000    -2.031000000
O     3.441000000     5.536000000    -0.264000000
H     4.271000000     6.004000000    -0.179000000
H     2.856000000     5.972000000     0.357000000
O    -0.220000000     0.252000000    -4.652000000
H    -0.063000000     0.848000000    -5.384000000
H     0.570000000     0.316000000    -4.117000000
O    -1.602000000     2.488000000    -0.716000000
H    -1.422000000     1.573000000    -0.502000000
H    -0.737000000     2.895000000    -0.772000000
O     4.323000000    -2.405000000    -1.104000000
H     4.587000000    -1.840000000    -0.378000000
H     3.751000000    -3.059000000    -0.703000000
O    -4.138000000    -3.207000000     1.626000000
H    -4.126000000    -3.758000000     2.408000000
H    -3.400000000    -3.519000000     1.102000000
