158
-3033.60646
C     0.285000000    -0.896000000     1.202000000
H     0.446000000    -1.404000000     2.150000000
C    -0.675000000     0.097000000     1.132000000
H    -1.371000000     0.198000000     1.961000000
C    -0.822000000     0.903000000    -0.020000000
H    -1.609000000     1.631000000    -0.107000000
C     0.106000000     0.754000000    -1.109000000
H     0.013000000     1.366000000    -2.003000000
C     0.971000000    -0.274000000    -1.071000000
H     1.578000000    -0.532000000    -1.935000000
C     1.081000000    -1.106000000     0.059000000
C     2.074000000    -2.254000000     0.033000000
O     2.770000000    -2.373000000     1.032000000
O     2.329000000    -2.862000000    -0.964000000
O     1.655000000     4.881000000     0.306000000
H     2.162000000     4.617000000    -0.462000000
H     1.050000000     5.545000000    -0.023000000
O    -4.198000000     2.956000000    -0.928000000
H    -4.696000000     3.279000000    -1.680000000
H    -3.290000000     2.944000000    -1.229000000
O     2.038000000    -5.436000000     0.994000000
H     2.614000000    -5.211000000     1.724000000
H     2.310000000    -4.853000000     0.285000000
O    -3.031000000    -2.877000000     1.346000000
H    -2.558000000    -2.977000000     0.520000000
H    -3.475000000    -2.034000000     1.268000000
O     4.367000000    -1.253000000     5.704000000
H     3.579000000    -0.770000000     5.951000000
H     4.088000000    -1.811000000     4.978000000
O    -5.383000000     4.258000000     1.519000000
H    -5.367000000     5.187000000     1.289000000
H    -4.914000000     3.826000000     0.805000000
O    -2.013000000     3.707000000     3.746000000
H    -2.765000000     3.272000000     3.344000000
H    -1.673000000     3.068000000     4.373000000
O    -5.193000000    -2.839000000     3.069000000
H    -5.106000000    -1.891000000     3.175000000
H    -4.543000000    -3.066000000     2.405000000
O     0.199000000    -3.754000000    -2.676000000
H    -0.128000000    -2.889000000    -2.923000000
H     1.069000000    -3.586000000    -2.314000000
O     5.127000000    -3.572000000     0.476000000
H     4.304000000    -3.110000000     0.637000000
H     5.271000000    -4.087000000     1.270000000
O     0.647000000    -6.390000000    -2.215000000
H     0.778000000    -6.447000000    -1.268000000
H     0.870000000    -5.485000000    -2.433000000
O     7.264000000    -2.693000000     1.925000000
H     6.684000000    -2.529000000     1.181000000
H     7.143000000    -3.622000000     2.122000000
O     1.278000000    -1.127000000     6.004000000
H     0.969000000    -0.453000000     6.610000000
H     0.490000000    -1.618000000     5.772000000
O     2.837000000    -1.519000000    -5.154000000
H     2.947000000    -2.047000000    -4.363000000
H     3.002000000    -2.129000000    -5.874000000
O    -6.054000000     4.476000000    -2.122000000
H    -6.870000000     4.826000000    -1.764000000
H    -5.463000000     5.228000000    -2.150000000
O     5.632000000    -0.783000000    -3.283000000
H     4.941000000    -0.997000000    -3.910000000
H     6.231000000    -0.219000000    -3.771000000
O    -5.305000000    -0.089000000     2.667000000
H    -5.368000000     0.109000000     1.732000000
H    -6.172000000    -0.421000000     2.900000000
O    -0.844000000    -2.686000000     5.189000000
H    -1.227000000    -3.353000000     4.619000000
H    -1.491000000    -1.981000000     5.203000000
O    -5.776000000     2.145000000    -3.870000000
H    -5.991000000     2.897000000    -3.319000000
H    -5.161000000     2.491000000    -4.518000000
O     0.182000000    -3.997000000    -5.552000000
H     0.176000000    -4.025000000    -4.595000000
H    -0.294000000    -4.784000000    -5.817000000
O    -3.532000000    -0.703000000    -3.307000000
H    -4.113000000    -0.652000000    -4.066000000
H    -3.742000000    -1.545000000    -2.902000000
O    -2.250000000     2.018000000    -3.198000000
H    -2.578000000     2.491000000    -3.963000000
H    -2.873000000     1.302000000    -3.074000000
O    -2.186000000    -4.553000000    -0.922000000
H    -1.450000000    -4.643000000    -1.527000000
H    -2.346000000    -5.442000000    -0.606000000
O     6.121000000    -0.078000000     2.054000000
H     5.732000000    -0.442000000     1.258000000
H     6.328000000    -0.843000000     2.591000000
O     1.873000000     1.985000000     1.408000000
H     1.172000000     1.438000000     1.056000000
H     2.079000000     2.597000000     0.701000000
O    -5.793000000     1.166000000    -0.004000000
H    -6.578000000     1.705000000    -0.103000000
H    -5.102000000     1.669000000    -0.434000000
O     3.431000000    -3.283000000    -3.211000000
H     3.789000000    -4.171000000    -3.210000000
H     3.263000000    -3.091000000    -2.288000000
O     6.249000000    -5.964000000    -1.037000000
H     6.147000000    -5.013000000    -1.002000000
H     6.095000000    -6.255000000    -0.139000000
O    -4.257000000     2.458000000     3.065000000
H    -4.806000000     1.713000000     2.820000000
H    -4.625000000     3.196000000     2.579000000
O     4.301000000     1.976000000     2.752000000
H     4.962000000     1.370000000     2.415000000
H     3.469000000     1.619000000     2.442000000
O    -2.790000000    -0.793000000     4.890000000
H    -2.385000000     0.070000000     4.980000000
H    -3.586000000    -0.632000000     4.383000000
O     2.986000000    -1.943000000     3.682000000
H     2.157000000    -1.730000000     4.111000000
H     2.782000000    -1.930000000     2.747000000
O    -0.289000000    -6.846000000     1.702000000
H    -0.479000000    -6.978000000     2.630000000
H     0.575000000    -6.433000000     1.690000000
O    -0.726000000    -1.322000000    -3.481000000
H    -0.612000000    -1.180000000    -4.421000000
H    -1.459000000    -0.755000000    -3.241000000
O     6.517000000    -3.387000000    -2.477000000
H     6.114000000    -2.530000000    -2.616000000
H     7.206000000    -3.226000000    -1.833000000
O    -0.884000000     4.966000000     1.807000000
H    -1.123000000     4.522000000     2.620000000
H    -0.212000000     4.407000000     1.418000000
O     0.403000000    -0.391000000    -5.902000000
H     0.141000000    -1.191000000    -6.356000000
H     1.136000000    -0.659000000    -5.348000000
O     3.301000000    -4.805000000     3.259000000
H     3.370000000    -3.864000000     3.097000000
H     3.838000000    -4.953000000     4.038000000
O     1.203000000     2.988000000    -4.520000000
H     0.463000000     2.411000000    -4.329000000
H     0.953000000     3.831000000    -4.141000000
O    -5.864000000    -1.749000000    -0.491000000
H    -5.366000000    -1.005000000    -0.830000000
H    -5.622000000    -2.479000000    -1.061000000
O     4.326000000    -5.851000000    -3.114000000
H     3.842000000    -6.653000000    -2.919000000
H     5.090000000    -5.886000000    -2.539000000
O     4.988000000    -0.676000000    -0.471000000
H     5.220000000    -0.554000000    -1.392000000
H     4.302000000    -1.344000000    -0.484000000
O     3.375000000     4.095000000    -1.736000000
H     4.008000000     3.379000000    -1.681000000
H     3.547000000     4.503000000    -2.585000000
O     1.284000000     5.515000000    -3.652000000
H     0.997000000     6.134000000    -2.981000000
H     2.240000000     5.554000000    -3.621000000
O     0.828000000     2.296000000     4.131000000
H     1.248000000     2.264000000     3.271000000
H     1.229000000     3.048000000     4.566000000
O     5.329000000     2.322000000    -1.169000000
H     6.142000000     2.222000000    -1.665000000
H     5.092000000     1.430000000    -0.916000000
O    -1.571000000     1.413000000     5.289000000
H    -0.631000000     1.523000000     5.142000000
H    -1.676000000     1.489000000     6.237000000
O    -2.498000000    -4.557000000     3.790000000
H    -2.648000000    -3.870000000     3.141000000
H    -3.085000000    -5.267000000     3.528000000
