158
-3036.22170
C     0.076000000    -1.305000000     0.692000000
H    -0.110000000    -2.183000000     1.305000000
C    -0.723000000    -0.191000000     0.963000000
H    -1.398000000    -0.134000000     1.813000000
C    -0.735000000     0.956000000     0.222000000
H    -1.401000000     1.723000000     0.453000000
C     0.270000000     1.080000000    -0.701000000
H     0.347000000     2.035000000    -1.216000000
C     1.116000000     0.002000000    -1.035000000
H     1.828000000     0.151000000    -1.844000000
C     0.971000000    -1.271000000    -0.389000000
C     1.809000000    -2.403000000    -0.800000000
O     2.029000000    -3.256000000     0.018000000
O     2.180000000    -2.488000000    -1.970000000
O     1.927000000     3.874000000     3.448000000
H     2.168000000     3.990000000     2.529000000
H     1.219000000     3.230000000     3.431000000
O    -3.535000000     4.351000000     4.988000000
H    -2.977000000     4.410000000     4.213000000
H    -2.932000000     4.442000000     5.725000000
O    -3.874000000     3.008000000     0.170000000
H    -3.742000000     3.935000000    -0.029000000
H    -3.667000000     2.556000000    -0.648000000
O     1.244000000    -5.852000000     0.864000000
H     1.840000000    -5.924000000     1.610000000
H     1.524000000    -5.057000000     0.409000000
O    -5.631000000    -1.368000000     0.717000000
H    -4.907000000    -1.886000000     0.366000000
H    -5.207000000    -0.684000000     1.236000000
O    -6.441000000     3.620000000     1.576000000
H    -6.524000000     3.996000000     2.452000000
H    -5.636000000     4.002000000     1.226000000
O     6.632000000    -5.341000000     0.929000000
H     6.016000000    -4.850000000     0.385000000
H     7.296000000    -5.656000000     0.315000000
O    -0.712000000     2.014000000     3.880000000
H    -1.525000000     1.529000000     3.736000000
H    -0.042000000     1.337000000     3.972000000
O    -0.343000000    -3.772000000    -2.791000000
H    -0.948000000    -3.113000000    -2.452000000
H     0.518000000    -3.356000000    -2.740000000
O     4.396000000    -4.402000000    -0.612000000
H     4.883000000    -3.663000000    -0.978000000
H     3.477000000    -4.155000000    -0.709000000
O    -0.798000000    -6.112000000    -0.893000000
H     0.050000000    -6.329000000    -0.505000000
H    -0.616000000    -5.368000000    -1.467000000
O     0.844000000    -4.395000000     3.674000000
H     0.761000000    -4.806000000     4.535000000
H    -0.058000000    -4.269000000     3.381000000
O     1.397000000    -1.170000000    -4.226000000
H     0.549000000    -1.361000000    -4.629000000
H     1.363000000    -1.612000000    -3.378000000
O    -3.480000000     5.430000000    -0.772000000
H    -4.167000000     6.008000000    -0.440000000
H    -3.117000000     5.897000000    -1.524000000
O    -4.609000000     5.689000000     2.409000000
H    -4.622000000     5.431000000     3.331000000
H    -3.740000000     5.431000000     2.100000000
O     6.164000000     1.002000000    -2.203000000
H     6.419000000     1.097000000    -1.285000000
H     6.982000000     0.805000000    -2.660000000
O     4.970000000    -2.009000000    -2.075000000
H     5.395000000    -1.349000000    -2.622000000
H     4.034000000    -1.881000000    -2.229000000
O    -4.271000000     0.822000000     1.701000000
H    -4.229000000     1.670000000     1.259000000
H    -3.812000000     0.962000000     2.530000000
O    -1.845000000    -4.657000000     3.573000000
H    -1.868000000    -5.024000000     2.689000000
H    -2.485000000    -5.172000000     4.063000000
O     4.018000000    -4.509000000     4.711000000
H     4.953000000    -4.344000000     4.586000000
H     3.584000000    -3.837000000     4.186000000
O     6.125000000    -1.707000000    -5.042000000
H     5.333000000    -1.176000000    -5.124000000
H     5.869000000    -2.571000000    -5.366000000
O    -3.934000000     1.493000000    -2.275000000
H    -4.621000000     1.808000000    -2.862000000
H    -3.987000000     0.540000000    -2.334000000
O     0.463000000     6.437000000    -1.145000000
H     1.162000000     6.901000000    -1.605000000
H     0.012000000     7.118000000    -0.645000000
O    -1.596000000    -5.902000000    -4.099000000
H    -0.968000000    -5.219000000    -3.863000000
H    -1.743000000    -6.384000000    -3.285000000
O    -4.046000000    -3.478000000     1.199000000
H    -4.600000000    -4.207000000     0.918000000
H    -3.174000000    -3.862000000     1.289000000
O     2.416000000     1.186000000     1.308000000
H     1.877000000     0.786000000     0.625000000
H     1.990000000     0.935000000     2.127000000
O     3.098000000    -4.616000000    -3.634000000
H     3.740000000    -5.193000000    -3.219000000
H     2.901000000    -3.958000000    -2.967000000
O    -0.114000000     5.365000000    -5.164000000
H     0.800000000     5.603000000    -5.319000000
H    -0.082000000     4.757000000    -4.426000000
O     3.784000000    -0.463000000    -4.841000000
H     4.110000000     0.425000000    -4.695000000
H     2.960000000    -0.498000000    -4.354000000
O     3.328000000    -7.888000000    -0.291000000
H     3.424000000    -6.969000000    -0.042000000
H     4.100000000    -8.318000000     0.078000000
O    -2.979000000     0.468000000     4.390000000
H    -3.068000000    -0.478000000     4.279000000
H    -2.880000000     0.590000000     5.334000000
O     4.949000000     0.788000000     2.300000000
H     5.312000000    -0.010000000     1.918000000
H     4.037000000     0.800000000     2.011000000
O    -2.898000000    -2.343000000     5.097000000
H    -2.648000000    -2.703000000     4.246000000
H    -2.083000000    -2.330000000     5.600000000
O    -7.346000000    -0.012000000    -0.699000000
H    -6.681000000    -0.378000000    -0.116000000
H    -7.130000000    -0.365000000    -1.562000000
O     2.679000000    -2.868000000     2.686000000
H     1.992000000    -3.451000000     3.011000000
H     2.436000000    -2.695000000     1.777000000
O     4.497000000     2.271000000    -4.221000000
H     4.259000000     3.179000000    -4.034000000
H     5.127000000     2.043000000    -3.537000000
O    -2.395000000    -5.510000000     1.149000000
H    -2.954000000    -6.285000000     1.181000000
H    -1.785000000    -5.684000000     0.432000000
O    -1.657000000    -0.930000000    -3.189000000
H    -2.551000000    -1.271000000    -3.164000000
H    -1.666000000    -0.190000000    -2.582000000
O    -1.762000000     4.482000000     3.035000000
H    -1.423000000     3.639000000     3.334000000
H    -1.499000000     4.534000000     2.116000000
O     2.683000000    -3.273000000    -5.880000000
H     2.655000000    -3.895000000    -5.154000000
H     2.587000000    -2.416000000    -5.465000000
O     3.271000000    -6.652000000     2.638000000
H     3.324000000    -5.941000000     3.276000000
H     4.161000000    -7.004000000     2.596000000
O    -1.725000000     2.185000000    -4.479000000
H    -2.260000000     1.481000000    -4.113000000
H    -1.310000000     2.590000000    -3.718000000
O     5.532000000    -1.734000000     1.777000000
H     6.352000000    -1.818000000     1.290000000
H     5.120000000    -2.595000000     1.701000000
O     2.431000000     3.681000000    -2.379000000
H     3.065000000     3.302000000    -1.771000000
H     2.944000000     4.289000000    -2.912000000
O    -0.114000000     4.062000000    -2.835000000
H    -0.348000000     4.618000000    -2.092000000
H     0.794000000     3.810000000    -2.669000000
O     4.307000000     3.048000000     0.405000000
H     4.865000000     2.286000000     0.247000000
H     3.513000000     2.686000000     0.796000000
O     0.956000000     4.069000000     0.630000000
H     1.065000000     3.300000000     0.070000000
H     0.634000000     4.750000000     0.040000000
O     1.458000000    -0.168000000     3.715000000
H     2.082000000    -0.058000000     4.433000000
H     1.589000000    -1.069000000     3.420000000
