158
-3034.13811
C     0.756000000    -0.173000000     1.274000000
H     1.289000000    -0.234000000     2.220000000
C    -0.117000000     0.834000000     0.982000000
H    -0.290000000     1.559000000     1.773000000
C    -0.694000000     0.968000000    -0.267000000
H    -1.436000000     1.707000000    -0.515000000
C    -0.426000000     0.054000000    -1.237000000
H    -0.813000000     0.156000000    -2.248000000
C     0.337000000    -1.089000000    -0.935000000
H     0.497000000    -1.805000000    -1.737000000
C     0.911000000    -1.255000000     0.371000000
C     1.791000000    -2.522000000     0.712000000
O     2.298000000    -2.537000000     1.817000000
O     1.927000000    -3.453000000    -0.097000000
O     1.695000000     4.646000000     3.896000000
H     1.330000000     4.088000000     4.583000000
H     0.944000000     4.870000000     3.346000000
O    -2.734000000     2.214000000     2.155000000
H    -2.354000000     3.087000000     2.055000000
H    -2.634000000     1.808000000     1.293000000
O     4.406000000    -3.380000000     4.290000000
H     3.583000000    -3.831000000     4.476000000
H     4.142000000    -2.493000000     4.044000000
O     0.249000000    -5.649000000     0.240000000
H     0.923000000    -6.280000000     0.490000000
H     0.673000000    -4.796000000     0.332000000
O    -3.022000000    -2.079000000     3.166000000
H    -2.897000000    -1.758000000     2.272000000
H    -2.592000000    -1.424000000     3.717000000
O     1.336000000    -1.159000000     5.214000000
H     0.537000000    -1.238000000     5.735000000
H     1.450000000    -2.023000000     4.818000000
O    -0.826000000     6.491000000    -3.081000000
H    -1.234000000     7.101000000    -2.467000000
H     0.090000000     6.450000000    -2.805000000
O     6.690000000    -0.899000000     3.068000000
H     6.975000000    -1.617000000     3.633000000
H     5.735000000    -0.972000000     3.051000000
O    -4.338000000     1.002000000     4.358000000
H    -3.890000000     1.074000000     3.515000000
H    -5.179000000     0.596000000     4.149000000
O    -2.858000000    -1.913000000     0.263000000
H    -2.539000000    -2.534000000    -0.391000000
H    -3.190000000    -1.175000000    -0.249000000
O     4.528000000    -4.463000000     1.217000000
H     3.784000000    -3.987000000     0.848000000
H     4.416000000    -4.386000000     2.165000000
O    -2.120000000    -5.379000000    -1.014000000
H    -2.267000000    -4.522000000    -1.414000000
H    -1.251000000    -5.312000000    -0.617000000
O     0.434000000    -3.840000000    -4.661000000
H     0.960000000    -3.963000000    -3.871000000
H    -0.370000000    -4.331000000    -4.492000000
O    -6.363000000     4.703000000     2.161000000
H    -7.132000000     5.256000000     2.023000000
H    -6.397000000     4.064000000     1.449000000
O    -1.839000000     4.023000000    -2.418000000
H    -1.519000000     4.886000000    -2.684000000
H    -1.066000000     3.578000000    -2.072000000
O     1.819000000    -7.709000000     0.427000000
H     1.322000000    -8.509000000     0.603000000
H     2.729000000    -7.951000000     0.598000000
O     6.063000000    -1.694000000    -2.180000000
H     5.974000000    -0.786000000    -1.891000000
H     5.169000000    -1.973000000    -2.376000000
O    -2.338000000    -0.398000000    -4.101000000
H    -1.754000000     0.120000000    -4.655000000
H    -3.026000000    -0.699000000    -4.694000000
O    -0.972000000    -4.370000000     3.303000000
H    -1.466000000    -5.131000000     2.998000000
H    -1.596000000    -3.646000000     3.258000000
O    -3.803000000     2.994000000    -3.821000000
H    -3.434000000     2.392000000    -4.468000000
H    -3.053000000     3.504000000    -3.513000000
O    -1.839000000    -3.036000000    -2.316000000
H    -1.446000000    -2.163000000    -2.324000000
H    -2.518000000    -2.999000000    -2.990000000
O     3.257000000    -2.132000000    -5.592000000
H     4.171000000    -1.872000000    -5.482000000
H     2.798000000    -1.315000000    -5.788000000
O    -5.470000000     0.251000000     0.904000000
H    -5.544000000     1.189000000     1.080000000
H    -4.951000000     0.199000000     0.101000000
O    -6.075000000     2.923000000     0.045000000
H    -5.348000000     3.406000000    -0.349000000
H    -6.780000000     2.984000000    -0.599000000
O     3.828000000     0.622000000     0.260000000
H     3.307000000     0.225000000    -0.437000000
H     4.115000000     1.460000000    -0.102000000
O    -1.081000000     2.111000000     4.832000000
H    -0.264000000     1.612000000     4.822000000
H    -1.707000000     1.556000000     4.366000000
O     0.967000000     2.329000000    -2.977000000
H     1.271000000     1.452000000    -2.742000000
H     1.234000000     2.880000000    -2.241000000
O     2.018000000    -4.595000000    -2.299000000
H     2.120000000    -5.545000000    -2.235000000
H     2.118000000    -4.282000000    -1.399000000
O     1.875000000     6.818000000    -2.972000000
H     1.946000000     5.933000000    -2.612000000
H     2.782000000     7.103000000    -3.087000000
O     2.995000000     0.510000000    -2.600000000
H     3.948000000     0.514000000    -2.682000000
H     2.741000000    -0.392000000    -2.799000000
O     4.890000000    -6.451000000    -0.340000000
H     4.531000000    -5.722000000     0.166000000
H     5.240000000    -6.043000000    -1.132000000
O     0.081000000     5.729000000     1.267000000
H    -0.855000000     5.554000000     1.372000000
H     0.121000000     6.628000000     0.941000000
O    -4.210000000     4.697000000    -0.763000000
H    -3.565000000     4.489000000    -1.439000000
H    -4.518000000     5.575000000    -0.987000000
O     4.207000000    -0.912000000     2.489000000
H     4.464000000    -0.515000000     1.657000000
H     3.513000000    -1.528000000     2.256000000
O    -5.835000000     4.626000000    -4.209000000
H    -5.131000000     4.015000000    -3.996000000
H    -6.426000000     4.582000000    -3.457000000
O     1.639000000     1.481000000     4.564000000
H     1.734000000     0.555000000     4.787000000
H     2.330000000     1.645000000     3.922000000
O     1.746000000    -4.176000000     3.746000000
H     0.793000000    -4.185000000     3.655000000
H     2.056000000    -3.711000000     2.969000000
O     2.513000000     4.446000000    -4.672000000
H     2.116000000     5.046000000    -5.304000000
H     1.818000000     3.821000000    -4.465000000
O    -1.496000000    -6.847000000     2.060000000
H    -1.021000000    -7.150000000     2.834000000
H    -0.825000000    -6.444000000     1.509000000
O    -4.215000000     0.229000000    -1.657000000
H    -5.089000000     0.381000000    -2.015000000
H    -3.647000000     0.176000000    -2.426000000
O     3.744000000    -4.721000000    -4.767000000
H     3.462000000    -4.018000000    -5.351000000
H     3.114000000    -4.702000000    -4.046000000
O    -2.732000000     5.116000000     1.625000000
H    -3.039000000     5.011000000     0.724000000
H    -3.115000000     5.944000000     1.914000000
O     1.724000000     4.076000000    -0.563000000
H     0.883000000     4.204000000    -0.124000000
H     2.377000000     4.303000000     0.098000000
O     3.360000000    -2.195000000    -2.587000000
H     3.208000000    -2.549000000    -3.463000000
H     3.135000000    -2.914000000    -1.996000000
O     3.332000000     4.864000000     1.607000000
H     4.071000000     4.378000000     1.973000000
H     2.688000000     4.889000000     2.315000000
O     4.199000000     1.765000000     3.264000000
H     4.768000000     2.487000000     2.999000000
H     4.297000000     1.115000000     2.568000000
O     3.751000000    -0.374000000     6.634000000
H     3.046000000    -0.648000000     6.048000000
H     3.508000000    -0.737000000     7.486000000
O    -0.612000000     1.388000000    -5.010000000
H    -0.256000000     1.902000000    -5.735000000
H    -0.042000000     1.595000000    -4.269000000
