158
-3067.36873
C     0.803000000    -0.370000000     1.124000000
H     1.559000000    -0.574000000     1.878000000
C     0.881000000     0.839000000     0.484000000
H     1.637000000     1.603000000     0.646000000
C     0.003000000     1.134000000    -0.480000000
H    -0.017000000     2.085000000    -1.041000000
C    -0.927000000     0.122000000    -0.911000000
H    -1.556000000     0.233000000    -1.790000000
C    -1.074000000    -1.018000000    -0.176000000
H    -1.797000000    -1.761000000    -0.504000000
C    -0.128000000    -1.383000000     0.818000000
C    -0.177000000    -2.677000000     1.583000000
O     0.707000000    -2.957000000     2.426000000
O    -0.968000000    -3.541000000     1.226000000
O    -3.099000000     3.866000000    -2.476000000
H    -3.838000000     4.442000000    -2.673000000
H    -3.285000000     3.531000000    -1.598000000
O     0.003000000     2.627000000     4.573000000
H    -0.895000000     2.950000000     4.649000000
H    -0.089000000     1.676000000     4.509000000
O    -3.271000000     0.973000000    -6.647000000
H    -4.171000000     1.268000000    -6.786000000
H    -3.133000000     1.061000000    -5.704000000
O    -3.763000000    -3.006000000     5.077000000
H    -3.702000000    -3.340000000     4.182000000
H    -4.305000000    -3.648000000     5.536000000
O     4.900000000    -1.934000000    -1.394000000
H     5.157000000    -1.578000000    -0.543000000
H     4.016000000    -1.596000000    -1.537000000
O    -0.032000000    -3.031000000     4.863000000
H    -0.743000000    -3.630000000     5.093000000
H     0.071000000    -3.134000000     3.917000000
O     2.567000000    -1.930000000     4.726000000
H     2.957000000    -2.477000000     4.044000000
H     1.671000000    -2.256000000     4.811000000
O     2.806000000     5.085000000     1.479000000
H     3.448000000     5.726000000     1.786000000
H     3.310000000     4.487000000     0.926000000
O    -0.754000000    -6.824000000    -2.655000000
H     0.129000000    -6.654000000    -2.984000000
H    -0.914000000    -6.122000000    -2.025000000
O    -1.518000000    -7.351000000     0.262000000
H    -0.820000000    -7.821000000     0.718000000
H    -1.604000000    -7.804000000    -0.577000000
O     2.709000000     0.722000000     4.092000000
H     1.821000000     0.746000000     3.735000000
H     2.768000000    -0.127000000     4.530000000
O    -3.498000000    -4.854000000    -1.406000000
H    -4.022000000    -4.180000000    -1.839000000
H    -2.604000000    -4.514000000    -1.430000000
O     0.481000000     3.863000000    -4.888000000
H    -0.393000000     4.250000000    -4.932000000
H     0.696000000     3.652000000    -5.796000000
O    -5.008000000    -1.191000000    -5.376000000
H    -4.683000000    -0.802000000    -6.188000000
H    -4.433000000    -0.841000000    -4.696000000
O     5.215000000    -4.115000000     1.625000000
H     5.710000000    -4.366000000     0.846000000
H     4.302000000    -4.290000000     1.396000000
O     2.151000000    -4.003000000    -1.118000000
H     2.142000000    -4.106000000    -0.167000000
H     2.829000000    -4.609000000    -1.419000000
O     1.304000000    -1.994000000    -3.457000000
H     1.850000000    -1.407000000    -2.934000000
H     1.447000000    -2.859000000    -3.073000000
O    -3.556000000    -3.669000000     2.479000000
H    -3.830000000    -4.553000000     2.236000000
H    -2.716000000    -3.548000000     2.037000000
O    -0.379000000    -5.729000000     2.362000000
H    -1.004000000    -6.198000000     1.810000000
H    -0.339000000    -4.850000000     1.985000000
O     1.808000000    -6.593000000     3.746000000
H     1.567000000    -7.103000000     4.519000000
H     0.971000000    -6.359000000     3.343000000
O     5.358000000     2.408000000    -2.550000000
H     5.215000000     3.246000000    -2.991000000
H     4.720000000     1.816000000    -2.949000000
O    -2.950000000    -0.064000000    -3.887000000
H    -2.285000000    -0.751000000    -3.875000000
H    -2.451000000     0.753000000    -3.877000000
O     3.912000000     3.229000000    -0.341000000
H     4.711000000     3.035000000    -0.833000000
H     3.271000000     3.468000000    -1.011000000
O    -1.705000000     5.059000000    -4.514000000
H    -1.485000000     5.988000000    -4.434000000
H    -2.300000000     4.890000000    -3.783000000
O     3.227000000     1.463000000    -4.070000000
H     3.472000000     0.630000000    -4.472000000
H     2.449000000     1.742000000    -4.553000000
O    -1.996000000     1.898000000     2.183000000
H    -1.515000000     1.195000000     1.746000000
H    -1.347000000     2.315000000     2.751000000
O     0.250000000     4.451000000     2.030000000
H     0.359000000     3.854000000     2.770000000
H     1.143000000     4.667000000     1.763000000
O    -1.120000000    -2.105000000    -4.347000000
H    -0.307000000    -1.901000000    -3.885000000
H    -0.895000000    -2.025000000    -5.274000000
O    -3.978000000    -5.974000000     1.207000000
H    -3.223000000    -6.255000000     0.690000000
H    -4.554000000    -5.544000000     0.575000000
O    -0.661000000    -4.587000000    -1.275000000
H    -0.948000000    -4.267000000    -0.420000000
H     0.289000000    -4.477000000    -1.266000000
O     3.341000000     6.378000000    -1.998000000
H     2.681000000     5.686000000    -1.982000000
H     2.890000000     7.131000000    -2.382000000
O    -4.765000000    -0.696000000    -1.948000000
H    -4.948000000    -1.621000000    -1.788000000
H    -4.070000000    -0.700000000    -2.606000000
O    -0.740000000     4.957000000    -0.629000000
H    -1.562000000     4.468000000    -0.656000000
H    -0.565000000     5.080000000     0.304000000
O    -5.431000000    -1.845000000     1.676000000
H    -4.869000000    -1.076000000     1.764000000
H    -5.013000000    -2.511000000     2.223000000
O    -0.443000000    -0.025000000     4.446000000
H    -0.048000000    -0.896000000     4.406000000
H    -1.330000000    -0.179000000     4.771000000
O     2.771000000    -0.190000000    -1.688000000
H     2.828000000     0.529000000    -2.318000000
H     2.243000000     0.161000000    -0.971000000
O     0.816000000     1.088000000    -5.490000000
H    -0.108000000     1.312000000    -5.377000000
H     0.807000000     0.301000000    -6.035000000
O     2.496000000    -4.833000000     1.560000000
H     1.758000000    -4.294000000     1.845000000
H     2.429000000    -5.629000000     2.088000000
O     2.806000000    -4.904000000     5.749000000
H     2.379000000    -5.255000000     4.967000000
H     2.184000000    -5.069000000     6.457000000
O    -1.105000000    -5.706000000     4.968000000
H    -0.798000000    -5.630000000     4.065000000
H    -1.838000000    -6.319000000     4.922000000
O     0.281000000     7.605000000    -1.006000000
H    -0.355000000     8.312000000    -1.111000000
H    -0.234000000     6.804000000    -1.108000000
O    -3.820000000     2.781000000    -0.058000000
H    -3.312000000     2.754000000     0.753000000
H    -4.586000000     2.235000000     0.122000000
O    -3.288000000     6.709000000    -1.210000000
H    -3.797000000     6.142000000    -1.788000000
H    -3.035000000     6.144000000    -0.480000000
O     5.737000000    -1.534000000     1.281000000
H     5.987000000    -1.203000000     2.143000000
H     5.505000000    -2.450000000     1.435000000
O     5.059000000     2.143000000     2.202000000
H     4.328000000     1.613000000     2.519000000
H     4.843000000     2.325000000     1.287000000
O    -4.530000000     0.614000000     2.335000000
H    -3.670000000     1.001000000     2.173000000
H    -4.813000000     0.995000000     3.166000000
O     1.545000000     4.260000000    -2.251000000
H     1.300000000     4.091000000    -3.161000000
H     0.711000000     4.347000000    -1.790000000
O    -1.459000000     2.171000000    -3.836000000
H    -0.706000000     2.662000000    -4.166000000
H    -1.976000000     2.818000000    -3.357000000
