158
-3060.17682
C     0.933000000    -0.481000000     1.095000000
H     1.751000000    -0.712000000     1.773000000
C     1.000000000     0.719000000     0.406000000
H     1.943000000     1.259000000     0.382000000
C     0.102000000     1.038000000    -0.614000000
H     0.228000000     1.977000000    -1.215000000
C    -0.936000000     0.193000000    -0.862000000
H    -1.604000000     0.514000000    -1.657000000
C    -1.129000000    -0.935000000    -0.116000000
H    -1.970000000    -1.593000000    -0.323000000
C    -0.179000000    -1.351000000     0.836000000
C    -0.279000000    -2.687000000     1.606000000
O     0.672000000    -3.006000000     2.256000000
O    -1.341000000    -3.279000000     1.682000000
O    -2.306000000     3.559000000    -1.876000000
H    -2.950000000     4.014000000    -2.419000000
H    -2.780000000     3.343000000    -1.073000000
O    -1.098000000     1.273000000    -7.187000000
H    -0.900000000     1.225000000    -6.252000000
H    -1.563000000     2.103000000    -7.292000000
O     3.020000000    -2.147000000    -2.326000000
H     3.802000000    -1.960000000    -1.808000000
H     2.633000000    -1.288000000    -2.495000000
O    -1.809000000    -0.310000000     4.849000000
H    -1.856000000    -0.604000000     3.939000000
H    -2.315000000    -0.960000000     5.336000000
O     0.781000000     0.578000000     4.439000000
H     1.301000000    -0.219000000     4.538000000
H    -0.125000000     0.286000000     4.537000000
O     0.084000000     5.224000000     1.604000000
H     0.794000000     5.612000000     2.116000000
H    -0.261000000     4.527000000     2.162000000
O     2.384000000     4.735000000     3.205000000
H     2.629000000     4.771000000     4.129000000
H     2.636000000     3.855000000     2.924000000
O     2.769000000     2.027000000     3.140000000
H     1.996000000     1.569000000     2.811000000
H     2.775000000     1.843000000     4.079000000
O    -3.621000000    -4.656000000     1.734000000
H    -4.276000000    -4.057000000     2.092000000
H    -2.856000000    -4.104000000     1.571000000
O     1.060000000     4.279000000    -4.225000000
H     0.671000000     5.063000000    -4.612000000
H     1.563000000     3.884000000    -4.937000000
O    -0.843000000    -7.034000000    -1.574000000
H    -0.951000000    -6.103000000    -1.381000000
H     0.086000000    -7.205000000    -1.418000000
O    -3.133000000    -6.483000000     3.660000000
H    -3.983000000    -6.244000000     4.031000000
H    -3.037000000    -5.914000000     2.896000000
O     4.207000000    -3.309000000     1.543000000
H     3.622000000    -4.049000000     1.380000000
H     3.830000000    -2.870000000     2.305000000
O     2.608000000    -5.311000000     0.629000000
H     1.931000000    -5.896000000     0.967000000
H     3.334000000    -5.891000000     0.400000000
O     1.263000000    -3.944000000    -1.312000000
H     1.778000000    -3.206000000    -1.638000000
H     1.846000000    -4.389000000    -0.695000000
O    -3.310000000    -1.263000000     2.572000000
H    -4.130000000    -1.244000000     2.079000000
H    -2.773000000    -1.914000000     2.120000000
O     0.245000000    -5.921000000     1.902000000
H    -0.625000000    -6.319000000     1.903000000
H     0.078000000    -4.979000000     1.919000000
O     1.925000000    -6.897000000     4.335000000
H     1.634000000    -7.365000000     5.118000000
H     1.620000000    -7.437000000     3.606000000
O    -2.404000000    -1.324000000    -3.676000000
H    -2.268000000    -2.184000000    -3.278000000
H    -1.583000000    -1.138000000    -4.131000000
O     4.101000000     2.211000000    -2.674000000
H     4.853000000     2.770000000    -2.871000000
H     3.465000000     2.800000000    -2.268000000
O     4.248000000     0.395000000    -4.622000000
H     3.478000000     0.351000000    -5.189000000
H     3.909000000     0.707000000    -3.782000000
O     0.036000000    -3.070000000    -3.650000000
H     0.457000000    -3.436000000    -2.873000000
H     0.119000000    -3.756000000    -4.313000000
O    -3.346000000     2.265000000     0.831000000
H    -2.644000000     1.693000000     0.521000000
H    -3.023000000     2.611000000     1.663000000
O    -3.812000000    -3.781000000    -2.508000000
H    -3.080000000    -3.944000000    -1.913000000
H    -3.675000000    -4.395000000    -3.230000000
O     0.327000000    -4.903000000     6.281000000
H     0.423000000    -5.852000000     6.356000000
H    -0.149000000    -4.774000000     5.461000000
O    -1.645000000    -4.383000000    -0.918000000
H    -1.554000000    -4.066000000    -0.019000000
H    -0.801000000    -4.190000000    -1.326000000
O     1.221000000     8.127000000    -0.977000000
H     1.006000000     7.195000000    -0.951000000
H     1.177000000     8.357000000    -1.905000000
O    -4.841000000    -0.207000000    -2.878000000
H    -4.900000000    -0.197000000    -3.834000000
H    -3.950000000    -0.504000000    -2.696000000
O    -0.333000000     5.558000000    -0.854000000
H    -0.894000000     4.843000000    -1.156000000
H    -0.206000000     5.386000000     0.078000000
O     2.390000000    -1.725000000     4.046000000
H     2.839000000    -2.369000000     4.592000000
H     1.840000000    -2.247000000     3.461000000
O     1.664000000     0.087000000    -3.061000000
H     1.040000000     0.011000000    -3.783000000
H     1.130000000     0.341000000    -2.309000000
O    -2.486000000     3.465000000    -6.354000000
H    -2.086000000     3.292000000    -5.502000000
H    -3.371000000     3.763000000    -6.146000000
O     4.195000000     6.401000000    -2.262000000
H     3.734000000     6.922000000    -2.919000000
H     3.517000000     5.845000000    -1.879000000
O     2.757000000    -1.749000000     6.861000000
H     2.636000000    -2.476000000     7.472000000
H     1.905000000    -1.649000000     6.436000000
O    -0.084000000    -0.700000000    -5.328000000
H     0.378000000    -1.380000000    -4.838000000
H     0.220000000    -0.806000000    -6.230000000
O     2.691000000    -4.471000000     3.436000000
H     1.841000000    -4.283000000     3.037000000
H     2.618000000    -5.376000000     3.740000000
O     3.492000000    -4.465000000     6.069000000
H     3.219000000    -4.172000000     5.200000000
H     2.684000000    -4.762000000     6.487000000
O    -1.243000000    -3.506000000     4.462000000
H    -1.076000000    -3.433000000     3.522000000
H    -2.193000000    -3.415000000     4.544000000
O    -1.641000000     6.957000000    -2.924000000
H    -2.319000000     7.519000000    -2.547000000
H    -1.039000000     6.789000000    -2.199000000
O    -5.337000000     3.854000000     0.185000000
H    -4.687000000     3.163000000     0.316000000
H    -6.042000000     3.430000000    -0.303000000
O     5.400000000    -1.805000000    -0.791000000
H     4.947000000    -2.178000000    -0.035000000
H     6.165000000    -2.368000000    -0.913000000
O     5.224000000     3.179000000     1.023000000
H     5.342000000     2.739000000     1.864000000
H     4.477000000     2.734000000     0.622000000
O    -4.523000000    -2.276000000    -0.300000000
H    -5.459000000    -2.115000000    -0.174000000
H    -4.466000000    -2.697000000    -1.157000000
O    -5.241000000    -6.227000000     0.207000000
H    -4.530000000    -5.769000000     0.656000000
H    -5.325000000    -7.057000000     0.676000000
O     5.816000000     1.521000000     3.544000000
H     5.763000000     0.896000000     2.821000000
H     5.130000000     1.244000000     4.152000000
O     4.229000000     0.473000000     5.558000000
H     3.462000000    -0.031000000     5.829000000
H     4.954000000    -0.150000000     5.605000000
O     2.054000000     4.282000000    -1.599000000
H     1.506000000     4.503000000    -2.353000000
H     1.475000000     4.387000000    -0.844000000
O    -1.277000000     2.725000000    -4.194000000
H    -0.346000000     2.791000000    -3.985000000
H    -1.692000000     2.481000000    -3.367000000
