158
-3072.84119
C     0.211000000     0.319000000     1.444000000
H     0.769000000     0.622000000     2.326000000
C     0.817000000     0.940000000     0.355000000
H     1.511000000     1.753000000     0.553000000
C     0.501000000     0.618000000    -0.999000000
H     0.967000000     1.032000000    -1.891000000
C    -0.516000000    -0.346000000    -1.199000000
H    -0.759000000    -0.702000000    -2.197000000
C    -1.085000000    -0.988000000    -0.128000000
H    -1.727000000    -1.855000000    -0.260000000
C    -0.695000000    -0.723000000     1.178000000
C    -1.249000000    -1.500000000     2.344000000
O    -0.834000000    -1.301000000     3.469000000
O    -2.092000000    -2.378000000     2.198000000
O     0.816000000     3.809000000     2.675000000
H     1.549000000     4.038000000     2.104000000
H     0.272000000     4.597000000     2.694000000
O     1.285000000     4.717000000    -1.186000000
H     1.779000000     4.664000000    -0.368000000
H     1.579000000     3.960000000    -1.693000000
O    -0.882000000     1.700000000     5.983000000
H    -1.323000000     0.850000000     5.995000000
H    -0.011000000     1.523000000     6.338000000
O    -3.447000000    -0.586000000     5.199000000
H    -4.269000000    -0.507000000     4.716000000
H    -2.872000000    -1.080000000     4.615000000
O    -1.792000000     2.372000000     0.189000000
H    -1.377000000     1.530000000     0.004000000
H    -1.167000000     2.829000000     0.752000000
O     5.161000000     0.379000000    -2.962000000
H     5.745000000    -0.360000000    -2.796000000
H     5.224000000     0.917000000    -2.172000000
O    -1.803000000     3.965000000     4.524000000
H    -1.303000000     3.167000000     4.695000000
H    -2.160000000     4.211000000     5.378000000
O    -1.736000000    -6.252000000     4.849000000
H    -1.201000000    -5.582000000     4.422000000
H    -2.604000000    -5.855000000     4.921000000
O     5.763000000     2.167000000    -0.635000000
H     5.889000000     3.116000000    -0.631000000
H     5.182000000     1.999000000     0.107000000
O    -3.646000000     2.856000000    -1.718000000
H    -2.977000000     3.025000000    -1.055000000
H    -3.843000000     1.923000000    -1.627000000
O     6.445000000     3.041000000    -4.217000000
H     6.988000000     2.640000000    -3.538000000
H     5.552000000     2.771000000    -4.000000000
O    -4.505000000    -2.839000000     0.976000000
H    -4.713000000    -3.751000000     1.176000000
H    -3.625000000    -2.711000000     1.330000000
O     0.859000000     3.246000000    -4.527000000
H     0.223000000     2.628000000    -4.168000000
H     0.346000000     4.029000000    -4.726000000
O    -5.621000000    -2.553000000     4.871000000
H    -6.293000000    -1.921000000     4.616000000
H    -5.927000000    -2.904000000     5.707000000
O    -5.622000000     0.148000000     3.626000000
H    -5.135000000     0.576000000     2.921000000
H    -6.145000000    -0.520000000     3.184000000
O    -0.637000000    -4.321000000     0.678000000
H    -1.166000000    -5.113000000     0.584000000
H    -1.139000000    -3.766000000     1.275000000
O     1.639000000     1.050000000     6.822000000
H     2.321000000     1.709000000     6.697000000
H     1.731000000     0.779000000     7.735000000
O     3.521000000    -4.012000000    -0.656000000
H     2.912000000    -3.303000000    -0.863000000
H     3.944000000    -4.215000000    -1.491000000
O     2.272000000    -1.984000000    -1.902000000
H     2.054000000    -1.348000000    -1.220000000
H     2.501000000    -1.450000000    -2.663000000
O     0.433000000    -1.199000000    -5.857000000
H    -0.017000000    -1.922000000    -5.419000000
H     1.206000000    -1.036000000    -5.317000000
O    -6.348000000    -0.767000000     1.226000000
H    -7.219000000    -1.157000000     1.304000000
H    -5.775000000    -1.502000000     1.006000000
O     0.171000000    -3.766000000    -1.699000000
H     0.703000000    -2.970000000    -1.690000000
H    -0.160000000    -3.843000000    -0.804000000
O    -0.168000000     1.109000000    -7.137000000
H    -0.042000000     0.263000000    -6.707000000
H    -0.713000000     1.608000000    -6.529000000
O     3.621000000     2.941000000    -3.717000000
H     2.926000000     3.479000000    -4.095000000
H     3.457000000     2.062000000    -4.059000000
O     2.368000000    -3.459000000     3.577000000
H     2.677000000    -4.028000000     4.282000000
H     2.401000000    -4.008000000     2.794000000
O    -5.098000000    -2.918000000    -3.074000000
H    -5.408000000    -3.544000000    -3.728000000
H    -4.441000000    -3.401000000    -2.573000000
O    -3.819000000     0.925000000     1.823000000
H    -3.681000000     1.288000000     0.948000000
H    -3.002000000     1.105000000     2.288000000
O    -3.235000000    -1.937000000    -5.030000000
H    -2.967000000    -2.716000000    -4.543000000
H    -3.978000000    -1.589000000    -4.535000000
O     2.941000000    -0.710000000    -4.350000000
H     3.475000000    -1.245000000    -4.937000000
H     3.573000000    -0.172000000    -3.874000000
O     0.036000000     7.056000000    -1.059000000
H    -0.872000000     6.899000000    -1.318000000
H     0.479000000     6.224000000    -1.227000000
O    -2.585000000    -6.211000000     0.090000000
H    -2.500000000    -6.613000000     0.954000000
H    -2.804000000    -6.938000000    -0.493000000
O     2.741000000     1.691000000    -7.638000000
H     3.016000000     0.952000000    -8.182000000
H     1.915000000     1.406000000    -7.247000000
O     3.828000000    -1.246000000     3.828000000
H     3.358000000    -2.034000000     3.557000000
H     3.144000000    -0.586000000     3.940000000
O     2.517000000     2.106000000     3.899000000
H     1.867000000     2.507000000     3.322000000
H     2.168000000     1.234000000     4.083000000
O    -0.104000000    -3.566000000    -4.177000000
H     0.402000000    -4.342000000    -4.420000000
H    -0.162000000    -3.608000000    -3.223000000
O    -0.375000000    -3.422000000     6.837000000
H    -1.213000000    -2.965000000     6.917000000
H    -0.324000000    -3.669000000     5.914000000
O     2.012000000    -4.992000000     1.434000000
H     2.580000000    -4.723000000     0.712000000
H     1.124000000    -4.848000000     1.107000000
O     2.981000000     4.479000000     1.081000000
H     3.592000000     5.043000000     1.555000000
H     3.274000000     3.589000000     1.277000000
O    -0.297000000    -3.987000000     3.927000000
H    -0.774000000    -3.174000000     3.760000000
H     0.578000000    -3.827000000     3.574000000
O    -3.640000000    -4.029000000     3.877000000
H    -3.017000000    -3.518000000     3.362000000
H    -4.246000000    -3.380000000     4.233000000
O     4.405000000    -1.151000000     1.019000000
H     5.241000000    -0.766000000     0.757000000
H     4.369000000    -1.024000000     1.967000000
O     5.121000000     4.795000000    -2.002000000
H     5.289000000     5.289000000    -2.805000000
H     4.446000000     4.162000000    -2.248000000
O    -1.894000000     1.673000000    -4.562000000
H    -2.044000000     0.779000000    -4.255000000
H    -2.769000000     2.016000000    -4.739000000
O    -4.140000000    -0.106000000    -1.392000000
H    -4.820000000    -0.768000000    -1.517000000
H    -3.497000000    -0.528000000    -0.822000000
O    -3.368000000    -3.866000000    -1.403000000
H    -3.545000000    -3.353000000    -0.615000000
H    -3.243000000    -4.760000000    -1.084000000
O     4.176000000     2.117000000     1.590000000
H     5.062000000     2.280000000     1.915000000
H     3.672000000     1.892000000     2.372000000
O     1.348000000    -0.293000000     4.528000000
H     0.662000000    -0.897000000     4.242000000
H     1.022000000     0.067000000     5.352000000
O    -2.783000000    -2.477000000     7.258000000
H    -3.339000000    -1.775000000     6.921000000
H    -2.576000000    -2.211000000     8.154000000
