158
-2978.13212
C     0.679000000    -1.088000000     0.814000000
H     1.263000000    -1.643000000     1.543000000
C     1.270000000     0.068000000     0.302000000
H     2.293000000     0.275000000     0.605000000
C     0.552000000     0.892000000    -0.573000000
H     1.152000000     1.655000000    -1.034000000
C    -0.698000000     0.589000000    -0.958000000
H    -1.193000000     1.183000000    -1.721000000
C    -1.363000000    -0.516000000    -0.359000000
H    -2.427000000    -0.592000000    -0.572000000
C    -0.702000000    -1.245000000     0.654000000
C    -1.433000000    -2.217000000     1.497000000
O    -0.800000000    -3.107000000     1.999000000
O    -2.622000000    -2.123000000     1.642000000
O    -1.406000000     1.601000000     1.674000000
H    -0.902000000     1.349000000     0.899000000
H    -0.817000000     1.429000000     2.408000000
O     3.539000000     3.455000000    -4.208000000
H     4.177000000     2.745000000    -4.135000000
H     3.257000000     3.617000000    -3.308000000
O    -2.815000000    -0.239000000     5.647000000
H    -3.501000000     0.296000000     6.046000000
H    -2.153000000    -0.330000000     6.333000000
O    -0.253000000    -3.150000000     4.528000000
H    -1.080000000    -3.449000000     4.906000000
H    -0.351000000    -3.304000000     3.588000000
O     4.893000000    -1.005000000    -4.089000000
H     4.032000000    -1.424000000    -4.075000000
H     4.820000000    -0.287000000    -3.460000000
O    -3.401000000     4.684000000    -4.552000000
H    -3.206000000     3.774000000    -4.327000000
H    -3.495000000     4.680000000    -5.505000000
O     1.022000000     4.753000000     0.103000000
H     0.135000000     4.440000000     0.281000000
H     1.566000000     4.315000000     0.756000000
O     6.397000000     2.341000000     2.390000000
H     5.910000000     3.023000000     1.927000000
H     6.923000000     2.816000000     3.032000000
O    -3.671000000     0.503000000     2.211000000
H    -3.005000000     1.189000000     2.170000000
H    -3.205000000    -0.298000000     1.971000000
O    -3.768000000    -4.745000000     2.426000000
H    -4.026000000    -4.255000000     3.207000000
H    -3.686000000    -4.080000000     1.742000000
O    -2.882000000     2.040000000    -4.341000000
H    -2.132000000     1.699000000    -4.828000000
H    -3.561000000     1.375000000    -4.449000000
O    -6.115000000    -0.694000000    -2.044000000
H    -5.374000000    -0.247000000    -1.634000000
H    -5.714000000    -1.356000000    -2.607000000
O    -3.411000000    -2.350000000     4.222000000
H    -3.013000000    -2.262000000     3.356000000
H    -3.170000000    -1.545000000     4.679000000
O    -1.281000000    -4.446000000    -1.025000000
H    -1.749000000    -3.627000000    -0.864000000
H    -1.918000000    -5.002000000    -1.473000000
O     2.176000000    -2.022000000    -4.346000000
H     1.828000000    -2.586000000    -5.037000000
H     1.928000000    -2.459000000    -3.532000000
O     0.237000000     0.875000000     3.765000000
H    -0.219000000     0.359000000     4.430000000
H     1.162000000     0.667000000     3.893000000
O     4.940000000    -2.980000000    -0.103000000
H     4.034000000    -3.214000000    -0.303000000
H     4.953000000    -2.862000000     0.846000000
O    -7.924000000     0.225000000    -0.266000000
H    -7.658000000     0.250000000     0.653000000
H    -7.186000000    -0.184000000    -0.718000000
O     0.119000000    -0.222000000    -4.061000000
H     0.796000000    -0.899000000    -4.088000000
H    -0.473000000    -0.447000000    -4.779000000
O     4.540000000    -0.235000000    -1.260000000
H     3.862000000     0.328000000    -0.887000000
H     4.562000000    -0.998000000    -0.682000000
O     0.465000000     7.363000000    -0.837000000
H     0.567000000     6.537000000    -0.364000000
H     1.072000000     7.295000000    -1.574000000
O    -4.346000000    -4.048000000     6.108000000
H    -4.284000000    -3.313000000     5.497000000
H    -3.748000000    -3.820000000     6.819000000
O    -0.363000000     5.104000000    -4.062000000
H    -0.930000000     5.030000000    -4.830000000
H    -0.051000000     4.212000000    -3.908000000
O    -3.239000000     5.495000000    -1.986000000
H    -3.306000000     5.243000000    -2.907000000
H    -2.677000000     4.827000000    -1.595000000
O    -6.574000000    -3.024000000     0.669000000
H    -6.164000000    -3.450000000    -0.083000000
H    -6.003000000    -2.281000000     0.865000000
O     2.156000000    -3.239000000    -0.956000000
H     1.541000000    -2.684000000    -0.477000000
H     1.642000000    -3.597000000    -1.679000000
O     2.520000000     5.159000000     2.336000000
H     2.870000000     6.003000000     2.621000000
H     1.649000000     5.115000000     2.730000000
O    -3.100000000     3.389000000     0.089000000
H    -2.609000000     3.151000000     0.875000000
H    -3.337000000     4.307000000     0.223000000
O    -6.124000000     0.887000000     3.110000000
H    -5.908000000     0.803000000     4.038000000
H    -5.279000000     0.850000000     2.662000000
O     3.547000000     2.750000000     3.224000000
H     3.356000000     3.670000000     3.407000000
H     4.294000000     2.775000000     2.625000000
O     3.067000000     4.965000000    -6.246000000
H     3.114000000     4.358000000    -5.508000000
H     3.192000000     5.829000000    -5.854000000
O     3.390000000     0.017000000     3.936000000
H     3.369000000     0.969000000     3.834000000
H     4.298000000    -0.179000000     4.168000000
O    -2.483000000    -7.643000000     2.019000000
H    -2.540000000    -6.687000000     2.011000000
H    -1.581000000    -7.827000000     2.279000000
O     6.304000000    -0.356000000     1.020000000
H     6.666000000     0.422000000     1.445000000
H     6.178000000    -0.094000000     0.108000000
O     0.615000000     2.595000000    -3.879000000
H     0.410000000     1.664000000    -3.973000000
H     1.552000000     2.653000000    -4.070000000
O     2.680000000    -5.487000000     0.520000000
H     2.656000000    -4.870000000    -0.211000000
H     1.760000000    -5.635000000     0.739000000
O    -0.123000000    -5.418000000     1.259000000
H    -0.450000000    -4.630000000     1.693000000
H    -0.505000000    -5.384000000     0.382000000
O    -4.720000000    -1.025000000     0.465000000
H    -4.532000000    -0.318000000     1.082000000
H    -4.040000000    -1.677000000     0.634000000
O     5.261000000    -2.188000000     2.461000000
H     5.435000000    -1.736000000     3.286000000
H     5.751000000    -1.690000000     1.806000000
O     5.432000000     1.818000000    -2.890000000
H     5.100000000     1.096000000    -2.356000000
H     5.686000000     2.488000000    -2.255000000
O    -5.059000000    -4.103000000    -1.404000000
H    -5.947000000    -4.415000000    -1.579000000
H    -4.510000000    -4.581000000    -2.026000000
O    -0.595000000     4.991000000     2.679000000
H    -0.704000000     4.583000000     3.538000000
H    -1.452000000     5.371000000     2.485000000
O     1.626000000     6.792000000    -3.364000000
H     0.971000000     6.099000000    -3.291000000
H     1.917000000     6.754000000    -4.275000000
O     5.036000000     4.643000000     1.625000000
H     4.144000000     4.933000000     1.813000000
H     5.588000000     5.379000000     1.890000000
O     2.108000000    -1.933000000     5.689000000
H     1.349000000    -2.405000000     5.346000000
H     2.521000000    -1.550000000     4.915000000
O     3.230000000     3.989000000    -1.465000000
H     3.605000000     4.868000000    -1.517000000
H     2.622000000     4.032000000    -0.727000000
O    -4.442000000     1.847000000    -1.912000000
H    -4.032000000     2.408000000    -1.254000000
H    -3.810000000     1.818000000    -2.630000000
O     0.011000000    -7.226000000     3.113000000
H     0.491000000    -7.986000000     2.783000000
H     0.048000000    -6.592000000     2.397000000
