158
-3032.91954
C     0.660000000     0.357000000     1.248000000
H     1.206000000     0.636000000     2.145000000
C     0.765000000     1.116000000     0.058000000
H     1.294000000     2.058000000     0.180000000
C     0.016000000     0.701000000    -1.012000000
H     0.005000000     1.344000000    -1.852000000
C    -0.603000000    -0.571000000    -1.090000000
H    -1.019000000    -0.914000000    -2.033000000
C    -0.641000000    -1.348000000     0.083000000
H    -1.104000000    -2.332000000     0.083000000
C    -0.024000000    -0.885000000     1.283000000
C    -0.109000000    -1.704000000     2.570000000
O     0.799000000    -1.710000000     3.389000000
O    -1.046000000    -2.413000000     2.734000000
O     1.102000000     5.474000000     0.629000000
H     1.687000000     5.003000000     0.035000000
H     0.328000000     4.915000000     0.697000000
O     3.181000000     4.217000000    -0.559000000
H     3.667000000     3.493000000    -0.163000000
H     3.433000000     4.199000000    -1.482000000
O    -1.312000000     2.786000000     4.560000000
H    -0.412000000     2.494000000     4.413000000
H    -1.733000000     2.049000000     5.003000000
O    -0.334000000    -1.540000000     5.925000000
H     0.090000000    -1.745000000     5.092000000
H    -1.183000000    -1.980000000     5.877000000
O    -1.165000000     4.076000000     1.228000000
H    -1.588000000     3.428000000     0.665000000
H    -1.872000000     4.669000000     1.483000000
O     5.049000000     1.677000000    -0.924000000
H     5.414000000     0.919000000    -1.381000000
H     4.850000000     1.353000000    -0.046000000
O    -0.687000000     6.234000000    -2.187000000
H    -0.490000000     5.356000000    -2.514000000
H    -1.086000000     6.085000000    -1.329000000
O    -0.669000000    -5.436000000     4.764000000
H     0.113000000    -4.884000000     4.740000000
H    -1.398000000    -4.816000000     4.779000000
O    -2.686000000     2.236000000    -0.241000000
H    -2.315000000     1.464000000    -0.669000000
H    -3.202000000     2.664000000    -0.924000000
O    -2.839000000     5.019000000    -4.720000000
H    -2.613000000     4.687000000    -3.851000000
H    -3.655000000     4.571000000    -4.943000000
O    -2.992000000    -3.345000000     1.285000000
H    -3.702000000    -2.753000000     1.534000000
H    -2.203000000    -2.932000000     1.635000000
O    -0.654000000     3.879000000    -3.460000000
H    -0.604000000     2.923000000    -3.493000000
H    -0.430000000     4.162000000    -4.346000000
O    -5.333000000    -2.380000000     2.271000000
H    -5.861000000    -2.223000000     1.488000000
H    -5.285000000    -1.527000000     2.703000000
O    -6.365000000    -1.956000000    -0.224000000
H    -6.972000000    -2.044000000    -0.958000000
H    -5.604000000    -2.478000000    -0.479000000
O    -4.082000000     0.547000000     3.941000000
H    -3.668000000     0.593000000     4.802000000
H    -4.039000000     1.443000000     3.607000000
O    -0.337000000    -6.960000000    -2.098000000
H     0.046000000    -6.111000000    -2.315000000
H     0.292000000    -7.361000000    -1.498000000
O    -0.630000000    -5.386000000     0.337000000
H    -0.198000000    -6.106000000     0.797000000
H    -1.360000000    -5.142000000     0.906000000
O     3.992000000    -2.191000000     0.895000000
H     4.286000000    -1.376000000     1.301000000
H     3.436000000    -1.909000000     0.168000000
O     1.858000000    -1.828000000    -3.941000000
H     1.061000000    -2.324000000    -4.126000000
H     2.562000000    -2.475000000    -4.001000000
O     1.227000000    -4.393000000    -1.424000000
H     1.348000000    -3.500000000    -1.101000000
H     0.536000000    -4.756000000    -0.870000000
O     2.761000000     0.731000000    -4.661000000
H     2.716000000    -0.183000000    -4.382000000
H     2.152000000     1.188000000    -4.080000000
O     5.006000000     3.733000000    -2.428000000
H     4.959000000     3.284000000    -3.272000000
H     4.977000000     3.029000000    -1.780000000
O    -4.519000000    -1.803000000     5.455000000
H    -4.653000000    -0.948000000     5.047000000
H    -4.884000000    -1.708000000     6.335000000
O     5.360000000    -2.387000000     3.913000000
H     5.204000000    -3.248000000     4.301000000
H     5.490000000    -2.565000000     2.981000000
O    -3.594000000    -3.261000000    -3.721000000
H    -4.155000000    -3.941000000    -4.095000000
H    -3.716000000    -3.344000000    -2.775000000
O    -3.552000000     2.716000000     2.238000000
H    -3.263000000     2.448000000     1.365000000
H    -2.750000000     2.742000000     2.759000000
O    -2.225000000    -1.380000000    -5.216000000
H    -1.525000000    -1.896000000    -4.817000000
H    -3.032000000    -1.807000000    -4.927000000
O     2.185000000    -1.466000000    -1.139000000
H     1.506000000    -0.911000000    -0.756000000
H     2.183000000    -1.239000000    -2.069000000
O    -2.278000000    -0.088000000    -7.504000000
H    -1.448000000     0.102000000    -7.941000000
H    -2.032000000    -0.287000000    -6.600000000
O     3.783000000     5.446000000    -5.611000000
H     3.420000000     4.585000000    -5.405000000
H     4.508000000     5.264000000    -6.209000000
O     5.114000000     2.059000000    -4.720000000
H     5.552000000     2.030000000    -5.571000000
H     4.494000000     1.330000000    -4.745000000
O     5.174000000     0.114000000     4.474000000
H     5.240000000    -0.810000000     4.233000000
H     4.265000000     0.346000000     4.286000000
O    -4.899000000    -4.895000000     3.824000000
H    -5.299000000    -4.153000000     3.370000000
H    -4.077000000    -4.549000000     4.171000000
O     3.026000000     2.223000000     3.015000000
H     2.378000000     1.780000000     3.563000000
H     3.117000000     3.092000000     3.406000000
O    -0.298000000    -3.398000000    -4.400000000
H    -0.209000000    -3.808000000    -5.260000000
H    -1.114000000    -3.753000000    -4.048000000
O     2.824000000     2.748000000    -6.786000000
H     3.268000000     2.243000000    -7.467000000
H     2.582000000     2.098000000    -6.125000000
O     1.546000000    -3.166000000     7.389000000
H     0.836000000    -2.584000000     7.119000000
H     1.762000000    -3.663000000     6.600000000
O     3.675000000    -5.708000000     0.965000000
H     3.184000000    -4.966000000     1.318000000
H     4.215000000    -5.330000000     0.272000000
O     5.030000000     5.366000000     1.570000000
H     4.763000000     5.964000000     2.269000000
H     4.277000000     5.334000000     0.981000000
O     1.647000000    -3.901000000     4.673000000
H     1.347000000    -3.202000000     4.092000000
H     2.417000000    -4.263000000     4.235000000
O    -2.597000000    -3.530000000     4.747000000
H    -2.446000000    -3.089000000     3.911000000
H    -3.243000000    -2.983000000     5.193000000
O     4.998000000     0.715000000     1.626000000
H     5.806000000     0.611000000     2.128000000
H     4.486000000     1.350000000     2.126000000
O    -1.476000000     1.241000000    -4.168000000
H    -2.322000000     1.082000000    -3.751000000
H    -1.323000000     0.463000000    -4.704000000
O    -4.011000000     0.912000000    -3.179000000
H    -4.365000000     0.552000000    -3.993000000
H    -4.473000000     0.438000000    -2.487000000
O    -4.374000000    -4.307000000    -1.052000000
H    -4.472000000    -5.199000000    -1.386000000
H    -4.223000000    -4.418000000    -0.113000000
O     1.508000000     0.616000000     4.730000000
H     1.553000000    -0.311000000     4.497000000
H     0.968000000     0.639000000     5.520000000
O    -4.453000000     0.766000000    -5.825000000
H    -5.033000000     0.732000000    -6.586000000
H    -3.596000000     0.512000000    -6.166000000
O    -3.785000000     3.528000000    -2.512000000
H    -4.516000000     4.019000000    -2.136000000
H    -4.102000000     2.626000000    -2.558000000
