158
-3020.76412
C     0.043000000    -0.094000000     1.457000000
H     0.020000000     0.098000000     2.527000000
C     0.948000000     0.651000000     0.660000000
H     1.607000000     1.326000000     1.200000000
C     0.876000000     0.556000000    -0.749000000
H     1.599000000     1.062000000    -1.336000000
C    -0.202000000    -0.213000000    -1.272000000
H    -0.298000000    -0.172000000    -2.354000000
C    -1.070000000    -0.985000000    -0.471000000
H    -1.892000000    -1.539000000    -0.917000000
C    -0.991000000    -0.812000000     0.915000000
C    -2.159000000    -1.333000000     1.821000000
O    -2.355000000    -0.798000000     2.848000000
O    -2.813000000    -2.194000000     1.392000000
O    -0.297000000     5.515000000    -1.304000000
H     0.316000000     6.249000000    -1.347000000
H     0.218000000     4.794000000    -0.940000000
O    -5.068000000     3.122000000     3.205000000
H    -5.279000000     4.017000000     3.471000000
H    -4.112000000     3.105000000     3.159000000
O    -1.060000000    -0.880000000     5.180000000
H    -0.582000000    -1.702000000     5.283000000
H    -1.564000000    -0.995000000     4.374000000
O     3.936000000     1.737000000    -6.129000000
H     3.574000000     0.986000000    -5.659000000
H     3.733000000     1.566000000    -7.048000000
O     2.785000000     5.307000000     2.820000000
H     3.007000000     6.224000000     2.977000000
H     2.214000000     5.327000000     2.052000000
O    -3.069000000    -3.925000000     3.681000000
H    -3.492000000    -3.570000000     4.463000000
H    -2.989000000    -3.175000000     3.091000000
O    -3.539000000     2.333000000    -1.037000000
H    -4.460000000     2.232000000    -1.275000000
H    -3.519000000     2.186000000    -0.091000000
O    -7.230000000    -2.523000000    -0.172000000
H    -6.528000000    -1.875000000    -0.109000000
H    -7.951000000    -2.145000000     0.330000000
O    -4.876000000    -0.327000000     3.882000000
H    -4.034000000    -0.556000000     3.487000000
H    -5.405000000    -0.009000000     3.151000000
O    -2.901000000    -1.279000000    -6.287000000
H    -2.539000000    -2.111000000    -6.593000000
H    -2.155000000    -0.820000000    -5.902000000
O    -2.669000000    -4.064000000    -0.457000000
H    -2.878000000    -3.394000000     0.194000000
H    -3.499000000    -4.514000000    -0.613000000
O     5.138000000    -2.640000000    -0.373000000
H     4.382000000    -2.054000000    -0.404000000
H     5.578000000    -2.420000000     0.449000000
O    -2.567000000     1.604000000     6.340000000
H    -2.256000000     1.628000000     5.435000000
H    -2.476000000     0.687000000     6.600000000
O    -2.233000000     2.064000000     3.627000000
H    -2.342000000     1.160000000     3.332000000
H    -1.502000000     2.399000000     3.107000000
O     0.177000000    -3.310000000     5.408000000
H     0.305000000    -3.844000000     4.624000000
H    -0.385000000    -3.843000000     5.971000000
O     1.127000000    -3.483000000    -1.823000000
H     0.606000000    -4.260000000    -1.624000000
H     0.797000000    -3.184000000    -2.670000000
O     3.961000000     3.607000000    -0.398000000
H     4.222000000     2.720000000    -0.644000000
H     4.622000000     3.884000000     0.237000000
O    -1.684000000     4.983000000     1.048000000
H    -1.076000000     4.360000000     1.447000000
H    -1.146000000     5.483000000     0.434000000
O     3.342000000    -0.956000000     3.037000000
H     4.111000000    -1.000000000     2.469000000
H     2.835000000    -1.737000000     2.814000000
O     5.059000000     1.186000000    -1.140000000
H     4.948000000     0.584000000    -1.875000000
H     5.769000000     0.805000000    -0.623000000
O    -6.562000000    -3.925000000     2.485000000
H    -6.676000000    -3.300000000     1.769000000
H    -6.098000000    -4.662000000     2.088000000
O     2.564000000    -2.169000000     0.139000000
H     1.975000000    -1.421000000     0.240000000
H     2.221000000    -2.644000000    -0.617000000
O    -5.415000000    -2.944000000     4.822000000
H    -5.663000000    -2.046000000     4.602000000
H    -5.595000000    -3.444000000     4.026000000
O    -0.794000000     0.123000000    -5.053000000
H    -0.592000000     0.995000000    -4.715000000
H     0.031000000    -0.184000000    -5.430000000
O    -4.673000000    -2.316000000    -2.866000000
H    -3.840000000    -2.083000000    -2.457000000
H    -4.923000000    -3.140000000    -2.447000000
O     0.439000000     3.395000000     2.520000000
H     1.103000000     3.969000000     2.139000000
H     0.931000000     2.801000000     3.087000000
O     1.902000000     6.420000000    -4.333000000
H     1.912000000     7.222000000    -3.812000000
H     2.425000000     5.798000000    -3.826000000
O    -1.088000000     4.248000000     5.378000000
H    -1.041000000     3.465000000     4.829000000
H    -1.604000000     3.977000000     6.138000000
O     2.182000000     1.518000000     3.690000000
H     2.827000000     2.224000000     3.648000000
H     2.670000000     0.732000000     3.448000000
O    -4.026000000    -5.683000000     1.770000000
H    -3.876000000    -5.066000000     2.487000000
H    -3.155000000    -5.849000000     1.410000000
O    -0.413000000    -5.715000000    -0.694000000
H    -1.106000000    -5.139000000    -0.372000000
H    -0.861000000    -6.534000000    -0.907000000
O    -1.943000000     3.400000000    -3.051000000
H    -2.217000000     4.316000000    -3.016000000
H    -2.359000000     2.996000000    -2.290000000
O     6.825000000     0.354000000    -3.286000000
H     7.601000000     0.356000000    -2.725000000
H     7.007000000     1.021000000    -3.948000000
O     1.811000000    -0.860000000    -6.285000000
H     2.041000000    -0.757000000    -7.209000000
H     2.627000000    -1.133000000    -5.865000000
O     2.747000000    -3.813000000     2.893000000
H     3.008000000    -4.263000000     2.090000000
H     1.800000000    -3.944000000     2.943000000
O     0.052000000    -4.322000000     2.578000000
H    -0.372000000    -5.163000000     2.750000000
H    -0.356000000    -4.009000000     1.771000000
O    -4.985000000    -0.972000000     0.601000000
H    -4.828000000    -0.028000000     0.610000000
H    -4.185000000    -1.352000000     0.964000000
O     0.229000000     2.730000000    -4.450000000
H     0.737000000     3.541000000    -4.459000000
H    -0.456000000     2.884000000    -3.799000000
O     5.906000000     1.135000000     3.364000000
H     5.461000000     1.979000000     3.280000000
H     6.440000000     1.224000000     4.153000000
O     3.724000000     4.908000000    -2.801000000
H     3.914000000     4.428000000    -1.995000000
H     4.576000000     5.009000000    -3.226000000
O    -0.390000000    -2.518000000    -4.097000000
H    -0.024000000    -2.586000000    -4.979000000
H    -0.766000000    -1.639000000    -4.061000000
O    -5.689000000    -4.500000000    -1.091000000
H    -6.340000000    -5.106000000    -1.443000000
H    -6.188000000    -3.712000000    -0.875000000
O     1.648000000     4.742000000     0.619000000
H     1.783000000     5.620000000     0.262000000
H     2.288000000     4.197000000     0.162000000
O     0.673000000     1.568000000     6.258000000
H    -0.104000000     1.013000000     6.184000000
H     1.207000000     1.335000000     5.499000000
O     4.165000000     3.285000000     3.597000000
H     4.482000000     3.440000000     4.487000000
H     3.809000000     4.129000000     3.319000000
O     3.355000000    -3.779000000    -3.397000000
H     3.380000000    -4.734000000    -3.455000000
H     2.746000000    -3.598000000    -2.681000000
O    -4.391000000     0.292000000    -4.288000000
H    -3.823000000    -0.074000000    -4.966000000
H    -4.614000000    -0.455000000    -3.732000000
O     0.890000000     2.579000000    -7.142000000
H     0.607000000     2.447000000    -6.238000000
H     0.255000000     2.090000000    -7.666000000
