158
-3069.62973
C     0.116000000     0.038000000     1.451000000
H     0.119000000     0.123000000     2.534000000
C     0.902000000     0.766000000     0.555000000
H     1.673000000     1.403000000     0.981000000
C     0.725000000     0.605000000    -0.764000000
H     1.187000000     1.285000000    -1.437000000
C    -0.224000000    -0.261000000    -1.261000000
H    -0.477000000    -0.162000000    -2.313000000
C    -0.937000000    -1.046000000    -0.399000000
H    -1.793000000    -1.623000000    -0.740000000
C    -0.755000000    -0.945000000     0.995000000
C    -1.678000000    -1.713000000     1.966000000
O    -1.713000000    -1.364000000     3.129000000
O    -2.409000000    -2.641000000     1.619000000
O     1.507000000     6.182000000    -2.433000000
H     2.176000000     6.369000000    -3.091000000
H     0.990000000     5.470000000    -2.812000000
O    -2.299000000    -2.445000000     5.357000000
H    -2.332000000    -3.389000000     5.199000000
H    -2.019000000    -2.071000000     4.522000000
O     3.930000000     3.020000000     1.504000000
H     3.278000000     3.719000000     1.464000000
H     4.376000000     3.156000000     2.340000000
O     2.505000000     4.633000000     3.616000000
H     2.837000000     4.360000000     4.471000000
H     1.859000000     3.965000000     3.386000000
O    -2.118000000     5.404000000    -0.959000000
H    -1.816000000     5.867000000    -0.178000000
H    -2.006000000     4.478000000    -0.746000000
O    -5.150000000    -1.891000000     3.937000000
H    -4.233000000    -1.885000000     3.664000000
H    -5.117000000    -1.996000000     4.887000000
O     0.734000000     2.780000000     3.840000000
H     0.334000000     2.517000000     4.668000000
H     0.021000000     3.188000000     3.348000000
O    -0.446000000     4.393000000     1.821000000
H     0.321000000     4.515000000     1.262000000
H    -0.936000000     3.683000000     1.406000000
O    -1.822000000     2.776000000    -0.148000000
H    -2.631000000     2.273000000    -0.050000000
H    -1.150000000     2.118000000    -0.322000000
O    -3.707000000    -0.337000000    -2.141000000
H    -3.186000000    -0.169000000    -2.926000000
H    -3.906000000    -1.272000000    -2.180000000
O    -1.538000000     2.180000000    -5.056000000
H    -2.200000000     2.569000000    -5.626000000
H    -0.751000000     2.132000000    -5.599000000
O     2.156000000     1.291000000     6.988000000
H     1.330000000     1.558000000     6.583000000
H     2.102000000     1.623000000     7.884000000
O     0.107000000    -6.702000000     2.574000000
H     1.057000000    -6.811000000     2.619000000
H    -0.100000000    -6.112000000     3.299000000
O    -6.467000000    -0.540000000     1.888000000
H    -5.850000000    -0.861000000     2.545000000
H    -7.050000000     0.046000000     2.373000000
O     3.947000000     0.543000000     3.176000000
H     4.677000000     0.969000000     3.625000000
H     3.178000000     1.052000000     3.431000000
O     3.108000000     4.041000000    -6.164000000
H     2.533000000     3.276000000    -6.174000000
H     2.516000000     4.788000000    -6.253000000
O     3.569000000    -2.330000000     3.511000000
H     3.865000000    -1.494000000     3.151000000
H     3.911000000    -2.986000000     2.905000000
O     1.457000000     4.298000000    -0.106000000
H     2.006000000     4.968000000    -0.513000000
H     1.096000000     3.804000000    -0.842000000
O     3.030000000    -1.360000000     6.501000000
H     2.985000000    -1.362000000     5.545000000
H     3.148000000    -0.439000000     6.733000000
O     3.915000000    -3.298000000     0.716000000
H     3.193000000    -3.439000000     0.103000000
H     4.151000000    -2.378000000     0.601000000
O    -3.600000000    -4.273000000    -0.262000000
H    -3.128000000    -3.690000000     0.332000000
H    -4.232000000    -4.724000000     0.297000000
O    -2.543000000    -0.390000000    -4.567000000
H    -2.121000000     0.442000000    -4.782000000
H    -2.002000000    -1.051000000    -4.999000000
O    -3.600000000    -7.840000000     2.653000000
H    -2.974000000    -8.190000000     2.020000000
H    -3.324000000    -6.933000000     2.786000000
O    -0.237000000    -4.701000000     0.709000000
H    -1.065000000    -4.477000000     1.134000000
H     0.010000000    -5.541000000     1.095000000
O     3.356000000    -0.984000000    -6.057000000
H     3.849000000    -0.170000000    -6.155000000
H     2.571000000    -0.732000000    -5.570000000
O     3.955000000     1.532000000    -2.601000000
H     4.745000000     1.523000000    -2.060000000
H     3.960000000     2.393000000    -3.018000000
O    -0.231000000    -0.950000000     7.810000000
H     0.121000000    -1.793000000     8.095000000
H     0.056000000    -0.866000000     6.900000000
O     0.323000000    -0.489000000    -6.853000000
H     0.216000000    -1.224000000    -6.250000000
H    -0.568000000    -0.177000000    -7.012000000
O     0.642000000    -1.617000000     4.295000000
H    -0.165000000    -1.485000000     3.798000000
H     1.334000000    -1.610000000     3.634000000
O     5.658000000     2.280000000    -0.642000000
H     4.893000000     2.751000000    -0.309000000
H     6.353000000     2.479000000    -0.015000000
O    -3.507000000    -1.565000000     8.359000000
H    -3.025000000    -1.349000000     7.562000000
H    -2.846000000    -1.548000000     9.051000000
O     1.961000000     0.162000000    -3.809000000
H     2.692000000     0.553000000    -3.330000000
H     1.813000000    -0.679000000    -3.376000000
O    -5.766000000    -4.660000000     2.353000000
H    -6.546000000    -4.960000000     1.886000000
H    -5.959000000    -3.750000000     2.579000000
O     5.444000000     5.473000000    -2.035000000
H     6.275000000     5.238000000    -1.623000000
H     5.331000000     4.827000000    -2.732000000
O     0.311000000     3.496000000    -3.170000000
H    -0.426000000     3.327000000    -3.758000000
H     0.868000000     2.722000000    -3.256000000
O    -2.511000000     1.090000000     4.618000000
H    -2.202000000     0.249000000     4.283000000
H    -3.393000000     1.183000000     4.259000000
O    -3.789000000     0.616000000     0.341000000
H    -3.806000000     0.359000000    -0.581000000
H    -3.859000000    -0.209000000     0.822000000
O    -2.989000000    -4.993000000     2.758000000
H    -2.707000000    -4.102000000     2.551000000
H    -3.920000000    -4.907000000     2.963000000
O     1.752000000    -3.773000000    -0.966000000
H     1.147000000    -3.535000000    -1.668000000
H     1.196000000    -3.877000000    -0.194000000
O     5.082000000     3.740000000    -4.258000000
H     5.819000000     4.297000000    -4.510000000
H     4.494000000     3.766000000    -5.012000000
O     0.866000000    -2.394000000    -4.703000000
H     0.368000000    -2.316000000    -3.889000000
H     1.025000000    -3.333000000    -4.797000000
O    -3.490000000    -3.238000000    -2.739000000
H    -3.499000000    -3.643000000    -1.871000000
H    -3.879000000    -3.897000000    -3.314000000
O     1.340000000     1.851000000    -5.916000000
H     1.001000000     1.086000000    -6.382000000
H     1.794000000     1.486000000    -5.156000000
O     4.546000000    -0.560000000     0.794000000
H     4.180000000    -0.016000000     1.492000000
H     4.619000000     0.030000000     0.044000000
O    -0.727000000    -3.625000000    -2.774000000
H    -1.644000000    -3.385000000    -2.903000000
H    -0.624000000    -4.445000000    -3.256000000
O    -5.323000000    -0.770000000    -4.573000000
H    -4.439000000    -0.931000000    -4.244000000
H    -5.667000000    -0.079000000    -4.007000000
O    -2.119000000    -6.416000000    -1.649000000
H    -1.191000000    -6.483000000    -1.427000000
H    -2.421000000    -5.636000000    -1.184000000
O    -0.462000000     2.230000000     6.603000000
H    -0.679000000     2.347000000     7.528000000
H    -1.304000000     2.061000000     6.180000000
