158
-3038.00974
C     0.140000000    -0.239000000     1.488000000
H     0.409000000    -0.495000000     2.510000000
C     1.143000000     0.107000000     0.624000000
H     2.183000000     0.199000000     0.928000000
C     0.924000000     0.451000000    -0.687000000
H     1.713000000     0.641000000    -1.340000000
C    -0.335000000     0.173000000    -1.218000000
H    -0.408000000     0.265000000    -2.298000000
C    -1.366000000    -0.214000000    -0.393000000
H    -2.316000000    -0.421000000    -0.879000000
C    -1.133000000    -0.515000000     0.965000000
C    -2.342000000    -0.817000000     1.848000000
O    -2.208000000    -1.052000000     3.073000000
O    -3.470000000    -0.871000000     1.423000000
O     0.860000000     3.510000000    -3.389000000
H     1.700000000     3.716000000    -2.980000000
H     0.221000000     3.599000000    -2.682000000
O    -3.957000000    -2.648000000     6.663000000
H    -4.174000000    -3.533000000     6.956000000
H    -4.441000000    -2.542000000     5.844000000
O     1.480000000     2.761000000     3.879000000
H     0.802000000     2.335000000     3.354000000
H     1.248000000     2.553000000     4.784000000
O    -5.124000000     3.411000000    -3.215000000
H    -4.445000000     3.531000000    -2.550000000
H    -5.424000000     4.298000000    -3.413000000
O    -3.504000000    -3.362000000     3.242000000
H    -2.979000000    -2.590000000     3.029000000
H    -4.383000000    -3.018000000     3.400000000
O     3.480000000    -0.506000000    -6.959000000
H     3.422000000    -1.145000000    -7.670000000
H     3.344000000     0.340000000    -7.387000000
O     0.660000000     0.932000000     6.506000000
H     1.160000000     0.119000000     6.432000000
H    -0.203000000     0.715000000     6.151000000
O    -1.023000000     2.495000000     2.763000000
H    -1.214000000     2.204000000     1.871000000
H    -1.697000000     3.147000000     2.951000000
O    -3.439000000     3.509000000    -0.875000000
H    -3.623000000     2.570000000    -0.842000000
H    -4.244000000     3.922000000    -0.564000000
O    -6.634000000     1.061000000     4.665000000
H    -7.333000000     1.519000000     4.198000000
H    -5.841000000     1.267000000     4.171000000
O    -6.268000000    -1.732000000     0.541000000
H    -5.521000000    -1.485000000     1.086000000
H    -5.905000000    -1.812000000    -0.341000000
O     4.018000000    -1.024000000     6.575000000
H     3.797000000    -0.112000000     6.387000000
H     3.205000000    -1.504000000     6.420000000
O    -0.686000000     4.165000000    -1.337000000
H    -0.699000000     4.808000000    -0.628000000
H    -1.605000000     3.927000000    -1.462000000
O     6.860000000     1.539000000     3.088000000
H     6.524000000     1.488000000     2.194000000
H     6.709000000     0.666000000     3.451000000
O    -4.508000000     1.088000000     0.142000000
H    -4.151000000     0.294000000     0.540000000
H    -5.080000000     0.771000000    -0.556000000
O     3.420000000     2.476000000    -0.456000000
H     2.765000000     2.405000000     0.239000000
H     3.078000000     3.155000000    -1.038000000
O     1.259000000    -1.594000000     5.939000000
H     0.305000000    -1.662000000     5.885000000
H     1.570000000    -1.919000000     5.094000000
O     2.159000000    -2.417000000     3.725000000
H     2.925000000    -1.983000000     3.349000000
H     2.043000000    -3.204000000     3.192000000
O     2.051000000    -4.808000000     2.423000000
H     1.571000000    -4.517000000     1.648000000
H     2.084000000    -5.761000000     2.341000000
O     0.805000000     3.687000000    -6.126000000
H     1.132000000     2.788000000    -6.128000000
H     0.790000000     3.934000000    -5.201000000
O     6.653000000    -2.381000000    -2.859000000
H     7.569000000    -2.455000000    -3.129000000
H     6.626000000    -1.591000000    -2.319000000
O     2.772000000     4.917000000    -1.699000000
H     3.364000000     5.362000000    -2.306000000
H     2.239000000     5.619000000    -1.327000000
O     3.197000000    -2.589000000    -1.905000000
H     4.028000000    -2.441000000    -1.454000000
H     3.184000000    -1.934000000    -2.603000000
O    -4.676000000     1.519000000     2.822000000
H    -4.739000000     1.815000000     1.914000000
H    -4.006000000     0.835000000     2.806000000
O    -4.040000000    -2.789000000    -5.039000000
H    -4.109000000    -3.320000000    -5.833000000
H    -3.525000000    -3.324000000    -4.436000000
O     2.963000000    -0.981000000    -4.496000000
H     3.244000000    -0.881000000    -5.405000000
H     2.236000000    -0.366000000    -4.400000000
O    -1.496000000    -1.588000000     5.477000000
H    -2.320000000    -1.720000000     5.946000000
H    -1.749000000    -1.557000000     4.554000000
O     3.034000000     4.991000000     3.378000000
H     2.876000000     5.559000000     4.132000000
H     2.498000000     4.216000000     3.546000000
O     5.593000000     0.607000000     0.290000000
H     4.807000000     0.974000000    -0.116000000
H     5.260000000    -0.035000000     0.917000000
O    -6.284000000    -4.000000000     1.977000000
H    -6.458000000    -3.172000000     1.529000000
H    -6.949000000    -4.044000000     2.664000000
O     4.166000000     5.438000000    -4.199000000
H     4.738000000     6.170000000    -4.429000000
H     4.462000000     4.719000000    -4.758000000
O    -1.940000000    -0.181000000    -4.153000000
H    -2.266000000     0.298000000    -4.914000000
H    -2.603000000    -0.853000000    -3.992000000
O    -1.907000000     1.216000000     5.627000000
H    -1.853000000     0.268000000     5.508000000
H    -2.186000000     1.550000000     4.775000000
O    -5.257000000    -1.429000000    -2.256000000
H    -5.975000000    -1.602000000    -2.865000000
H    -4.514000000    -1.913000000    -2.618000000
O     7.834000000     0.023000000    -1.676000000
H     7.295000000     0.031000000    -0.886000000
H     8.562000000     0.612000000    -1.477000000
O    -3.949000000    -5.842000000     2.089000000
H    -3.803000000    -5.489000000     1.211000000
H    -3.978000000    -5.071000000     2.655000000
O    -6.027000000    -1.876000000     4.478000000
H    -6.496000000    -1.896000000     5.312000000
H    -6.407000000    -1.134000000     4.007000000
O     1.269000000    -3.459000000     0.059000000
H     1.917000000    -2.972000000    -0.449000000
H     0.691000000    -2.787000000     0.419000000
O    -8.444000000    -0.514000000     1.620000000
H    -8.428000000     0.432000000     1.478000000
H    -7.621000000    -0.827000000     1.244000000
O     0.681000000     1.041000000    -4.667000000
H    -0.059000000     0.674000000    -4.182000000
H     0.777000000     1.929000000    -4.322000000
O     5.111000000    -3.127000000     0.538000000
H     5.988000000    -2.769000000     0.673000000
H     5.228000000    -4.075000000     0.598000000
O     0.503000000    -3.662000000    -2.897000000
H     1.199000000    -3.133000000    -3.286000000
H     0.603000000    -3.534000000    -1.954000000
O     3.347000000     0.659000000     4.190000000
H     3.685000000     0.095000000     3.495000000
H     2.646000000     1.160000000     3.773000000
O     4.678000000    -1.031000000     2.125000000
H     4.628000000    -1.671000000     1.415000000
H     5.150000000    -1.485000000     2.823000000
O    -1.974000000    -4.734000000     5.432000000
H    -2.856000000    -4.954000000     5.733000000
H    -2.103000000    -4.005000000     4.825000000
O    -2.553000000    -3.593000000    -2.535000000
H    -2.883000000    -3.598000000    -1.637000000
H    -1.602000000    -3.646000000    -2.441000000
O     6.067000000     3.613000000     0.323000000
H     5.952000000     4.043000000     1.170000000
H     5.267000000     3.101000000     0.205000000
O    -3.849000000    -3.785000000    -0.202000000
H    -3.737000000    -3.178000000     0.530000000
H    -4.742000000    -4.116000000    -0.104000000
