158
-3065.68370
C     0.252000000    -0.210000000     1.392000000
H     0.557000000    -0.213000000     2.435000000
C     1.115000000     0.339000000     0.505000000
H     2.109000000     0.652000000     0.817000000
C     0.800000000     0.516000000    -0.818000000
H     1.538000000     1.020000000    -1.455000000
C    -0.507000000     0.023000000    -1.274000000
H    -0.823000000     0.095000000    -2.312000000
C    -1.364000000    -0.579000000    -0.345000000
H    -2.366000000    -0.850000000    -0.670000000
C    -1.053000000    -0.616000000     1.023000000
C    -2.025000000    -1.136000000     2.046000000
O    -1.873000000    -1.104000000     3.245000000
O    -3.043000000    -1.666000000     1.601000000
O     2.021000000     5.719000000    -4.216000000
H     2.870000000     5.599000000    -4.643000000
H     1.729000000     4.831000000    -4.011000000
O    -2.610000000    -2.685000000     6.041000000
H    -1.742000000    -2.913000000     5.708000000
H    -3.159000000    -2.630000000     5.259000000
O    -4.503000000    -2.139000000     4.008000000
H    -3.781000000    -2.096000000     3.381000000
H    -5.254000000    -2.426000000     3.490000000
O     0.866000000     2.858000000     4.615000000
H     0.249000000     3.402000000     5.103000000
H     0.407000000     2.028000000     4.490000000
O    -0.938000000     4.620000000     1.666000000
H    -0.697000000     5.444000000     1.243000000
H    -0.896000000     3.970000000     0.965000000
O    -1.203000000     2.747000000    -0.109000000
H    -1.965000000     2.186000000    -0.253000000
H    -0.488000000     2.303000000    -0.565000000
O    -4.397000000     0.278000000    -2.681000000
H    -3.680000000     0.428000000    -3.298000000
H    -4.614000000    -0.648000000    -2.787000000
O    -5.216000000    -0.112000000     1.116000000
H    -4.601000000    -0.779000000     1.422000000
H    -5.562000000     0.281000000     1.917000000
O     6.216000000    -1.393000000    -1.863000000
H     7.005000000    -0.866000000    -1.994000000
H     6.231000000    -2.029000000    -2.579000000
O     3.018000000     1.365000000     3.658000000
H     3.052000000     1.483000000     2.708000000
H     2.550000000     2.137000000     3.978000000
O     6.293000000     1.837000000     2.290000000
H     5.930000000     2.264000000     3.066000000
H     6.331000000     2.529000000     1.631000000
O     0.880000000    -3.494000000     3.124000000
H     0.881000000    -2.817000000     3.801000000
H     1.622000000    -3.271000000     2.561000000
O    -4.712000000     3.829000000     0.507000000
H    -4.233000000     3.132000000     0.058000000
H    -5.365000000     4.119000000    -0.129000000
O     1.926000000     3.043000000     1.425000000
H     1.063000000     2.783000000     1.102000000
H     1.805000000     3.940000000     1.735000000
O     3.070000000    -0.827000000     5.141000000
H     2.142000000    -0.998000000     4.981000000
H     3.259000000    -0.040000000     4.630000000
O     2.770000000    -2.987000000     1.359000000
H     2.261000000    -3.170000000     0.570000000
H     3.240000000    -2.177000000     1.159000000
O     4.828000000     1.094000000    -6.079000000
H     4.524000000     1.866000000    -6.557000000
H     5.246000000     1.448000000    -5.295000000
O    -4.559000000    -2.979000000    -0.582000000
H    -4.326000000    -2.377000000     0.125000000
H    -5.400000000    -3.349000000    -0.315000000
O    -6.339000000     2.087000000    -2.727000000
H    -6.601000000     1.558000000    -1.974000000
H    -5.455000000     1.785000000    -2.935000000
O    -2.443000000     0.815000000    -4.587000000
H    -2.175000000     1.679000000    -4.901000000
H    -1.986000000     0.200000000    -5.161000000
O    -1.253000000    -4.847000000     0.603000000
H    -1.371000000    -5.773000000     0.395000000
H    -1.516000000    -4.771000000     1.520000000
O     4.465000000     1.352000000    -2.979000000
H     4.355000000     1.525000000    -2.044000000
H     5.335000000     0.958000000    -3.049000000
O    -0.233000000    -0.653000000     7.856000000
H     0.223000000    -1.370000000     8.297000000
H    -1.083000000    -1.022000000     7.614000000
O    -1.183000000    -0.558000000    -6.811000000
H    -0.260000000    -0.669000000    -6.583000000
H    -1.535000000    -1.449000000    -6.824000000
O     0.229000000    -1.539000000     5.006000000
H     0.078000000    -0.992000000     5.776000000
H    -0.486000000    -1.317000000     4.409000000
O     4.475000000     2.381000000    -0.396000000
H     3.632000000     2.472000000     0.048000000
H     4.869000000     3.252000000    -0.340000000
O    -5.898000000    -1.161000000     6.304000000
H    -5.254000000    -1.303000000     5.610000000
H    -5.385000000    -0.835000000     7.043000000
O     2.690000000    -0.355000000    -4.532000000
H     3.380000000     0.103000000    -4.051000000
H     2.303000000    -0.948000000    -3.888000000
O    -7.015000000    -4.399000000     0.377000000
H    -7.420000000    -5.266000000     0.418000000
H    -6.708000000    -4.236000000     1.269000000
O    -6.090000000    -4.056000000     2.757000000
H    -6.686000000    -4.221000000     3.487000000
H    -5.297000000    -4.544000000     2.980000000
O    -6.094000000     0.531000000     3.520000000
H    -6.018000000     1.438000000     3.819000000
H    -6.281000000     0.033000000     4.316000000
O     2.340000000     2.766000000    -4.324000000
H     2.444000000     2.537000000    -5.247000000
H     3.043000000     2.293000000    -3.878000000
O    -3.871000000    -5.596000000     3.026000000
H    -3.807000000    -6.208000000     2.293000000
H    -3.088000000    -5.050000000     2.951000000
O    -1.650000000     1.329000000     4.114000000
H    -1.800000000     0.486000000     3.687000000
H    -2.163000000     1.953000000     3.601000000
O    -3.416000000     1.516000000    -0.525000000
H    -3.729000000     0.943000000    -1.225000000
H    -3.779000000     1.136000000     0.275000000
O    -1.810000000    -3.962000000     3.058000000
H    -0.879000000    -3.825000000     3.232000000
H    -2.114000000    -3.125000000     2.709000000
O    -3.612000000     2.374000000     5.700000000
H    -4.034000000     2.701000000     4.906000000
H    -2.713000000     2.184000000     5.433000000
O     0.812000000    -3.042000000    -0.447000000
H     0.518000000    -2.233000000    -0.028000000
H     0.240000000    -3.720000000    -0.085000000
O    -7.062000000     0.900000000    -0.411000000
H    -7.596000000     1.354000000     0.241000000
H    -6.394000000     0.444000000     0.102000000
O     0.993000000    -1.966000000    -2.938000000
H     0.450000000    -1.179000000    -2.892000000
H     0.906000000    -2.368000000    -2.074000000
O     6.339000000    -0.828000000     3.187000000
H     5.946000000    -1.104000000     2.359000000
H     6.475000000     0.114000000     3.085000000
O    -4.781000000    -2.403000000    -3.155000000
H    -4.772000000    -2.829000000    -2.298000000
H    -5.703000000    -2.398000000    -3.411000000
O     1.712000000     0.329000000    -7.105000000
H     2.380000000     0.950000000    -7.394000000
H     2.080000000    -0.071000000    -6.318000000
O     4.438000000    -0.642000000    -0.084000000
H     4.462000000     0.309000000    -0.185000000
H     5.103000000    -0.965000000    -0.693000000
O    -1.967000000    -2.474000000    -3.979000000
H    -2.871000000    -2.170000000    -4.057000000
H    -1.940000000    -2.930000000    -3.138000000
O     0.254000000    -2.850000000    -5.674000000
H     0.609000000    -2.560000000    -4.834000000
H    -0.681000000    -2.971000000    -5.509000000
O    -4.773000000    -0.097000000    -5.680000000
H    -4.165000000    -0.220000000    -6.409000000
H    -4.262000000     0.370000000    -5.018000000
O    -2.156000000    -3.782000000    -1.709000000
H    -1.809000000    -4.431000000    -1.097000000
H    -2.862000000    -3.352000000    -1.226000000
