158
-3016.19184
C    -0.097000000    -1.502000000     0.177000000
H    -0.274000000    -2.568000000     0.289000000
C    -0.763000000    -0.560000000     0.991000000
H    -1.443000000    -0.894000000     1.772000000
C    -0.603000000     0.829000000     0.691000000
H    -1.245000000     1.535000000     1.228000000
C     0.206000000     1.256000000    -0.369000000
H     0.316000000     2.287000000    -0.695000000
C     0.951000000     0.293000000    -1.074000000
H     1.602000000     0.598000000    -1.890000000
C     0.775000000    -1.073000000    -0.773000000
C     1.624000000    -2.049000000    -1.587000000
O     2.686000000    -1.757000000    -2.065000000
O     1.105000000    -3.108000000    -1.913000000
O    -4.811000000     4.709000000     1.983000000
H    -4.128000000     5.373000000     2.078000000
H    -5.237000000     4.920000000     1.153000000
O     2.387000000    -1.993000000    -4.758000000
H     2.153000000    -2.137000000    -3.841000000
H     2.534000000    -1.049000000    -4.822000000
O    -1.517000000     1.762000000     7.420000000
H    -1.116000000     2.595000000     7.667000000
H    -1.765000000     1.878000000     6.503000000
O     0.263000000    -4.770000000     2.054000000
H     0.951000000    -4.147000000     2.289000000
H     0.113000000    -5.273000000     2.855000000
O     2.898000000     3.461000000    -2.510000000
H     1.968000000     3.368000000    -2.714000000
H     3.251000000     2.574000000    -2.588000000
O    -3.360000000     2.467000000     2.910000000
H    -3.587000000     1.803000000     2.258000000
H    -3.829000000     3.251000000     2.627000000
O     4.340000000     2.499000000    -0.006000000
H     4.942000000     2.701000000     0.710000000
H     3.661000000     1.959000000     0.398000000
O    -2.720000000     0.120000000    -1.696000000
H    -1.968000000     0.504000000    -1.247000000
H    -3.416000000     0.117000000    -1.039000000
O     2.114000000    -8.200000000    -1.907000000
H     1.586000000    -7.416000000    -1.758000000
H     2.855000000    -7.893000000    -2.431000000
O     2.605000000    -3.346000000     2.609000000
H     3.498000000    -3.686000000     2.548000000
H     2.595000000    -2.842000000     3.422000000
O    -4.214000000     1.876000000     5.540000000
H    -4.626000000     1.060000000     5.823000000
H    -3.585000000     1.607000000     4.871000000
O     1.355000000    -0.256000000     5.583000000
H     1.748000000    -0.165000000     4.715000000
H     1.829000000    -0.984000000     5.986000000
O    -1.171000000     4.231000000    -1.605000000
H    -2.035000000     4.276000000    -2.016000000
H    -0.667000000     3.645000000    -2.170000000
O     4.567000000    -0.429000000     1.698000000
H     5.338000000    -0.322000000     1.142000000
H     4.865000000    -0.987000000     2.416000000
O    -1.554000000     6.899000000    -2.631000000
H    -1.167000000     6.053000000    -2.407000000
H    -2.429000000     6.873000000    -2.245000000
O    -1.820000000    -3.887000000    -4.377000000
H    -1.076000000    -4.037000000    -4.961000000
H    -2.509000000    -3.550000000    -4.950000000
O     3.507000000    -4.621000000    -1.111000000
H     4.052000000    -4.438000000    -0.346000000
H     2.737000000    -4.063000000    -0.994000000
O     5.328000000    -1.794000000    -2.121000000
H     5.450000000    -2.500000000    -1.485000000
H     4.381000000    -1.656000000    -2.148000000
O     0.600000000    -4.619000000    -5.975000000
H     1.228000000    -4.678000000    -5.254000000
H     0.827000000    -3.806000000    -6.425000000
O     6.290000000    -3.333000000     0.091000000
H     6.976000000    -3.997000000     0.013000000
H     5.915000000    -3.477000000     0.960000000
O     7.495000000    -0.280000000    -1.484000000
H     7.773000000    -0.073000000    -2.377000000
H     6.855000000    -0.983000000    -1.589000000
O    -1.422000000    -3.573000000    -1.688000000
H    -1.527000000    -3.409000000    -2.625000000
H    -0.495000000    -3.406000000    -1.517000000
O     1.681000000     6.185000000    -1.407000000
H     0.892000000     5.712000000    -1.143000000
H     2.294000000     5.499000000    -1.671000000
O     1.564000000    -5.887000000    -3.619000000
H     2.517000000    -5.957000000    -3.575000000
H     1.363000000    -5.062000000    -3.177000000
O    -1.277000000     2.768000000     4.904000000
H    -0.681000000     2.692000000     4.159000000
H    -2.151000000     2.710000000     4.519000000
O    -0.163000000     0.682000000    -5.834000000
H    -0.455000000     1.246000000    -6.551000000
H    -0.941000000     0.180000000    -5.592000000
O    -2.621000000    -3.860000000     0.798000000
H    -2.352000000    -3.761000000    -0.115000000
H    -1.801000000    -3.968000000     1.279000000
O     2.539000000     0.712000000    -5.251000000
H     2.772000000     1.492000000    -4.748000000
H     1.597000000     0.796000000    -5.400000000
O     1.155000000     2.710000000     3.576000000
H     1.429000000     3.423000000     2.999000000
H     1.612000000     1.940000000     3.238000000
O    -1.914000000     5.661000000     0.905000000
H    -2.535000000     6.146000000     0.362000000
H    -1.469000000     5.074000000     0.294000000
O     1.490000000     2.431000000     6.401000000
H     1.107000000     2.859000000     5.635000000
H     1.419000000     1.495000000     6.212000000
O     4.237000000    -6.666000000    -2.856000000
H     4.009000000    -6.087000000    -2.129000000
H     5.080000000    -7.044000000    -2.606000000
O     6.003000000    -3.398000000    -4.558000000
H     6.934000000    -3.178000000    -4.593000000
H     5.716000000    -3.087000000    -3.699000000
O    -2.625000000    -6.361000000    -2.693000000
H    -1.790000000    -6.827000000    -2.722000000
H    -2.413000000    -5.471000000    -2.974000000
O     0.415000000     2.764000000    -3.514000000
H     0.675000000     3.125000000    -4.362000000
H    -0.148000000     2.021000000    -3.733000000
O     4.638000000     1.222000000    -2.564000000
H     4.622000000     1.634000000    -1.700000000
H     4.919000000     0.323000000    -2.395000000
O    -0.360000000     5.576000000     5.488000000
H    -0.528000000     4.652000000     5.303000000
H    -0.249000000     5.976000000     4.626000000
O    -4.279000000     0.968000000     0.661000000
H    -5.138000000     1.177000000     0.295000000
H    -4.330000000     0.037000000     0.878000000
O    -0.658000000     6.804000000     2.949000000
H    -1.312000000     6.383000000     2.391000000
H    -0.994000000     7.690000000     3.086000000
O     0.782000000    -5.637000000    -0.677000000
H     0.958000000    -4.834000000    -1.168000000
H     0.621000000    -5.339000000     0.219000000
O     4.255000000    -0.735000000    -6.833000000
H     4.384000000    -1.415000000    -6.171000000
H     3.754000000    -0.055000000    -6.383000000
O    -4.229000000    -1.639000000     1.121000000
H    -3.451000000    -2.178000000     1.264000000
H    -4.594000000    -1.960000000     0.296000000
O    -3.732000000     3.868000000    -2.796000000
H    -4.170000000     4.355000000    -2.097000000
H    -4.445000000     3.555000000    -3.352000000
O     1.982000000     0.139000000     2.615000000
H     1.318000000    -0.207000000     2.018000000
H     2.816000000    -0.100000000     2.211000000
O    -0.266000000    -7.684000000    -3.965000000
H     0.180000000    -8.531000000    -3.975000000
H     0.435000000    -7.046000000    -3.827000000
O     1.775000000     4.890000000     2.237000000
H     2.072000000     5.532000000     1.592000000
H     0.843000000     5.077000000     2.350000000
O     4.514000000     5.187000000    -0.908000000
H     4.152000000     4.353000000    -1.206000000
H     5.391000000     4.969000000    -0.593000000
O     3.598000000    -4.426000000    -5.340000000
H     3.207000000    -3.595000000    -5.069000000
H     4.530000000    -4.327000000    -5.143000000
