158
-3058.42874
C    -0.981000000    -0.573000000     1.004000000
H    -1.502000000    -1.062000000     1.823000000
C    -0.071000000     0.512000000     1.312000000
H     0.026000000     0.938000000     2.307000000
C     0.676000000     1.039000000     0.255000000
H     1.338000000     1.868000000     0.313000000
C     0.552000000     0.503000000    -1.034000000
H     1.020000000     0.918000000    -1.923000000
C    -0.276000000    -0.580000000    -1.273000000
H    -0.332000000    -0.985000000    -2.281000000
C    -1.047000000    -1.184000000    -0.257000000
C    -1.850000000    -2.435000000    -0.445000000
O    -2.645000000    -2.798000000     0.404000000
O    -1.522000000    -3.208000000    -1.340000000
O    -1.874000000    -4.375000000     2.209000000
H    -1.212000000    -4.913000000     1.776000000
H    -2.164000000    -3.762000000     1.533000000
O    -4.615000000    -6.260000000    -2.417000000
H    -4.808000000    -5.509000000    -1.855000000
H    -5.092000000    -6.081000000    -3.227000000
O     0.173000000    -7.536000000     0.323000000
H    -0.212000000    -8.284000000     0.780000000
H    -0.564000000    -6.945000000     0.168000000
O     4.071000000     1.962000000    -0.129000000
H     5.024000000     2.031000000    -0.060000000
H     3.756000000     2.092000000     0.765000000
O     1.452000000    -4.531000000     1.186000000
H     2.318000000    -4.906000000     1.350000000
H     1.136000000    -4.992000000     0.409000000
O    -3.954000000     0.816000000     1.133000000
H    -3.266000000     0.448000000     0.578000000
H    -4.756000000     0.712000000     0.621000000
O    -4.414000000    -0.277000000    -4.876000000
H    -4.229000000    -0.971000000    -4.243000000
H    -3.552000000     0.010000000    -5.177000000
O     3.990000000    -2.247000000     2.074000000
H     4.631000000    -1.682000000     1.643000000
H     3.197000000    -2.156000000     1.545000000
O    -0.550000000     3.215000000    -1.792000000
H    -0.205000000     2.626000000    -1.121000000
H    -0.191000000     2.881000000    -2.613000000
O     2.142000000    -2.029000000     0.108000000
H     1.414000000    -1.468000000    -0.162000000
H     1.743000000    -2.887000000     0.253000000
O    -1.238000000     6.359000000     0.541000000
H    -1.059000000     6.380000000    -0.399000000
H    -2.099000000     5.947000000     0.612000000
O    -4.319000000    -5.409000000     2.590000000
H    -3.508000000    -4.972000000     2.331000000
H    -4.553000000    -5.005000000     3.426000000
O     3.707000000    -1.770000000    -1.993000000
H     3.245000000    -1.931000000    -1.171000000
H     4.590000000    -1.516000000    -1.726000000
O     4.486000000     2.374000000    -3.103000000
H     5.441000000     2.406000000    -3.163000000
H     4.311000000     2.184000000    -2.182000000
O    -0.390000000     0.137000000     4.852000000
H    -0.724000000    -0.737000000     4.651000000
H    -1.172000000     0.684000000     4.915000000
O    -4.808000000    -4.247000000    -0.453000000
H    -5.506000000    -3.991000000     0.150000000
H    -4.086000000    -3.652000000    -0.249000000
O    -6.872000000    -1.240000000    -0.779000000
H    -6.774000000    -1.521000000    -1.689000000
H    -6.738000000    -2.036000000    -0.266000000
O    -1.289000000     5.997000000    -2.074000000
H    -1.922000000     6.460000000    -2.623000000
H    -1.239000000     5.120000000    -2.453000000
O     1.303000000    -4.951000000    -4.263000000
H     1.216000000    -4.180000000    -4.824000000
H     1.424000000    -5.678000000    -4.873000000
O     4.410000000     1.404000000     2.691000000
H     3.967000000     1.948000000     3.342000000
H     4.160000000     0.508000000     2.916000000
O    -1.801000000    -2.180000000     4.538000000
H    -2.412000000    -2.141000000     3.803000000
H    -2.326000000    -1.937000000     5.301000000
O    -5.015000000    -3.410000000    -4.407000000
H    -4.384000000    -3.292000000    -3.697000000
H    -4.506000000    -3.271000000    -5.205000000
O     2.355000000     2.125000000    -4.429000000
H     2.145000000     1.254000000    -4.093000000
H     3.110000000     2.406000000    -3.912000000
O     7.025000000     2.320000000     3.468000000
H     6.208000000     2.296000000     2.969000000
H     7.103000000     1.442000000     3.842000000
O    -3.808000000    -1.672000000     2.516000000
H    -3.929000000    -0.841000000     2.057000000
H    -3.463000000    -2.267000000     1.850000000
O     1.220000000    -3.179000000     3.565000000
H     0.292000000    -3.149000000     3.799000000
H     1.244000000    -3.660000000     2.738000000
O     5.623000000    -0.545000000     0.866000000
H     6.077000000    -0.691000000     0.036000000
H     5.645000000     0.405000000     0.987000000
O     0.934000000    -4.473000000    -1.745000000
H     0.119000000    -3.971000000    -1.732000000
H     0.969000000    -4.850000000    -2.624000000
O    -3.659000000     3.180000000     2.597000000
H    -4.067000000     2.460000000     2.116000000
H    -2.796000000     2.845000000     2.842000000
O     6.628000000     2.364000000    -0.080000000
H     6.694000000     3.257000000     0.259000000
H     7.532000000     2.113000000    -0.271000000
O     1.050000000     5.327000000     1.296000000
H     0.237000000     5.737000000     1.001000000
H     0.788000000     4.777000000     2.034000000
O    -1.335000000    -6.674000000     3.552000000
H    -1.706000000    -5.813000000     3.357000000
H    -0.995000000    -6.592000000     4.443000000
O    -6.102000000    -2.703000000     3.320000000
H    -5.882000000    -3.195000000     4.111000000
H    -5.264000000    -2.358000000     3.011000000
O    -2.625000000     1.665000000     5.269000000
H    -3.458000000     1.433000000     5.678000000
H    -2.223000000     2.283000000     5.879000000
O    -0.248000000     3.367000000    -4.598000000
H    -0.022000000     4.209000000    -4.992000000
H     0.590000000     2.916000000    -4.496000000
O    -2.041000000    -5.858000000    -0.577000000
H    -1.520000000    -5.155000000    -0.966000000
H    -2.923000000    -5.492000000    -0.510000000
O    -3.169000000     2.546000000    -1.671000000
H    -3.757000000     3.292000000    -1.553000000
H    -2.338000000     2.936000000    -1.940000000
O     1.923000000     2.761000000     3.352000000
H     1.022000000     3.073000000     3.429000000
H     1.840000000     1.814000000     3.239000000
O     3.033000000     4.712000000    -0.688000000
H     3.584000000     4.004000000    -0.353000000
H     2.341000000     4.806000000    -0.034000000
O     2.102000000    -0.025000000     3.869000000
H     2.085000000    -0.948000000     3.613000000
H     1.281000000     0.108000000     4.342000000
O    -2.846000000    -2.123000000    -3.254000000
H    -2.290000000    -2.689000000    -2.718000000
H    -2.237000000    -1.680000000    -3.845000000
O    -0.427000000     4.178000000     3.720000000
H    -1.110000000     4.817000000     3.517000000
H     0.040000000     4.555000000     4.465000000
O     2.064000000    -0.603000000    -4.070000000
H     2.809000000    -0.799000000    -3.502000000
H     1.777000000    -1.457000000    -4.393000000
O    -6.928000000    -3.482000000     1.027000000
H    -7.676000000    -4.074000000     1.095000000
H    -6.668000000    -3.318000000     1.933000000
O     4.221000000     4.061000000     4.114000000
H     4.334000000     3.738000000     5.008000000
H     3.349000000     3.760000000     3.859000000
O    -1.453000000    -0.816000000    -5.075000000
H    -1.782000000    -0.798000000    -5.974000000
H    -1.064000000     0.048000000    -4.944000000
O     0.525000000    -2.757000000    -5.464000000
H     0.418000000    -2.606000000    -6.404000000
H    -0.245000000    -2.350000000    -5.068000000
O     1.567000000     5.367000000    -2.843000000
H     0.739000000     5.530000000    -2.391000000
H     2.122000000     4.951000000    -2.183000000
