158
-3023.61062
C    -0.112000000    -0.063000000     1.533000000
H    -0.009000000    -0.108000000     2.614000000
C     0.829000000     0.629000000     0.786000000
H     1.528000000     1.214000000     1.380000000
C     0.826000000     0.715000000    -0.596000000
H     1.546000000     1.246000000    -1.088000000
C    -0.105000000     0.006000000    -1.307000000
H    -0.171000000     0.005000000    -2.392000000
C    -0.996000000    -0.835000000    -0.594000000
H    -1.540000000    -1.579000000    -1.171000000
C    -0.978000000    -0.912000000     0.828000000
C    -1.969000000    -1.766000000     1.623000000
O    -1.978000000    -1.718000000     2.822000000
O    -2.786000000    -2.456000000     0.995000000
O     0.215000000    -0.593000000    -6.555000000
H     1.031000000    -1.092000000    -6.502000000
H    -0.425000000    -1.217000000    -6.896000000
O    -1.720000000    -1.740000000     5.437000000
H    -2.495000000    -2.142000000     5.829000000
H    -1.905000000    -1.730000000     4.498000000
O     0.555000000    -2.887000000     3.023000000
H    -0.310000000    -2.479000000     3.035000000
H     0.382000000    -3.812000000     2.847000000
O     4.874000000     1.849000000     0.069000000
H     4.359000000     1.839000000     0.876000000
H     5.657000000     1.339000000     0.278000000
O     2.080000000     4.487000000    -5.585000000
H     2.991000000     4.263000000    -5.395000000
H     1.753000000     3.749000000    -6.098000000
O    -0.317000000     0.488000000     5.987000000
H    -0.816000000    -0.298000000     5.761000000
H    -0.022000000     0.334000000     6.884000000
O    -2.763000000     0.700000000     3.478000000
H    -2.604000000    -0.243000000     3.445000000
H    -3.337000000     0.873000000     2.731000000
O    -1.559000000    -7.399000000     0.510000000
H    -0.694000000    -7.647000000     0.184000000
H    -1.882000000    -6.764000000    -0.129000000
O    -5.276000000     1.254000000    -1.542000000
H    -5.533000000     0.903000000    -2.394000000
H    -5.233000000     0.487000000    -0.970000000
O     4.621000000     3.559000000    -4.817000000
H     5.255000000     4.125000000    -5.256000000
H     5.083000000     3.235000000    -4.044000000
O     2.073000000     0.570000000     4.529000000
H     2.340000000     1.249000000     3.910000000
H     1.259000000     0.901000000     4.910000000
O    -0.705000000     3.194000000     0.073000000
H    -0.718000000     2.249000000     0.222000000
H     0.054000000     3.337000000    -0.492000000
O     3.004000000    -1.886000000     3.220000000
H     3.004000000    -1.123000000     3.799000000
H     2.078000000    -2.097000000     3.102000000
O    -3.310000000    -6.459000000     2.413000000
H    -2.947000000    -6.616000000     1.541000000
H    -3.531000000    -5.527000000     2.416000000
O     5.878000000    -1.061000000    -4.217000000
H     6.791000000    -0.925000000    -3.963000000
H     5.675000000    -1.946000000    -3.914000000
O     1.926000000    -2.498000000    -0.054000000
H     1.536000000    -1.624000000    -0.017000000
H     2.193000000    -2.679000000     0.847000000
O     6.634000000     3.547000000    -2.688000000
H     7.029000000     2.771000000    -2.292000000
H     5.940000000     3.801000000    -2.079000000
O     3.811000000     0.162000000    -2.101000000
H     4.488000000    -0.063000000    -2.739000000
H     4.297000000     0.415000000    -1.315000000
O    -3.859000000    -3.860000000     3.080000000
H    -4.679000000    -3.475000000     2.771000000
H    -3.214000000    -3.615000000     2.416000000
O    -6.486000000    -1.705000000     2.306000000
H    -6.851000000    -0.849000000     2.083000000
H    -6.411000000    -1.692000000     3.261000000
O     1.003000000     4.837000000     1.454000000
H     0.697000000     5.716000000     1.677000000
H     0.212000000     4.370000000     1.184000000
O    -5.038000000    -4.960000000     5.602000000
H    -4.697000000    -4.494000000     4.839000000
H    -4.673000000    -4.491000000     6.352000000
O    -0.179000000    -4.048000000    -1.479000000
H     0.528000000    -3.578000000    -1.037000000
H     0.262000000    -4.567000000    -2.151000000
O     3.622000000     1.990000000     2.590000000
H     4.306000000     2.198000000     3.227000000
H     3.115000000     2.797000000     2.510000000
O     4.263000000     0.654000000    -6.241000000
H     4.036000000     1.477000000    -5.809000000
H     4.756000000     0.165000000    -5.582000000
O    -2.676000000     0.882000000    -4.378000000
H    -3.005000000     1.504000000    -3.728000000
H    -1.753000000     0.767000000    -4.154000000
O    -2.429000000    -5.088000000    -3.819000000
H    -2.671000000    -4.230000000    -3.472000000
H    -1.871000000    -5.472000000    -3.142000000
O    -2.713000000    -4.499000000    -0.659000000
H    -2.793000000    -3.729000000    -0.096000000
H    -1.816000000    -4.462000000    -0.991000000
O    -2.711000000     1.928000000     5.937000000
H    -3.013000000     1.722000000     5.053000000
H    -1.765000000     1.784000000     5.907000000
O     3.319000000     4.783000000     2.748000000
H     2.513000000     4.940000000     2.257000000
H     3.198000000     5.264000000     3.567000000
O     0.524000000    -3.949000000     5.471000000
H    -0.164000000    -4.293000000     6.040000000
H     0.084000000    -3.289000000     4.935000000
O    -3.563000000    -3.157000000     7.060000000
H    -2.928000000    -3.864000000     7.171000000
H    -3.533000000    -2.675000000     7.887000000
O    -6.745000000    -5.495000000     1.766000000
H    -7.372000000    -6.102000000     1.374000000
H    -6.207000000    -5.200000000     1.031000000
O    -0.482000000     3.532000000    -3.318000000
H    -0.526000000     4.286000000    -2.731000000
H     0.261000000     3.717000000    -3.891000000
O    -4.767000000    -6.142000000    -0.922000000
H    -4.039000000    -5.522000000    -0.881000000
H    -4.474000000    -6.814000000    -1.538000000
O    -3.322000000     3.785000000    -0.066000000
H    -3.192000000     4.693000000    -0.337000000
H    -2.451000000     3.392000000    -0.119000000
O    -0.323000000    -5.532000000     2.434000000
H    -0.658000000    -5.966000000     3.219000000
H    -0.236000000    -6.234000000     1.790000000
O     4.470000000     4.895000000    -1.076000000
H     3.853000000     4.938000000    -1.807000000
H     4.111000000     4.221000000    -0.500000000
O    -3.140000000     0.830000000    -6.990000000
H    -2.958000000     1.049000000    -6.077000000
H    -2.769000000    -0.045000000    -7.105000000
O    -4.746000000    -1.084000000     0.171000000
H    -5.502000000    -1.524000000     0.561000000
H    -3.991000000    -1.455000000     0.627000000
O     3.387000000    -2.693000000    -2.545000000
H     2.825000000    -2.848000000    -1.786000000
H     3.603000000    -1.761000000    -2.496000000
O    -5.726000000    -2.168000000     4.896000000
H    -5.033000000    -2.127000000     5.555000000
H    -6.189000000    -2.983000000     5.087000000
O     0.640000000     2.364000000    -6.778000000
H     0.287000000     1.520000000    -6.497000000
H     0.085000000     3.012000000    -6.345000000
O    -3.225000000     2.976000000    -2.896000000
H    -2.347000000     3.334000000    -3.024000000
H    -3.346000000     2.974000000    -1.946000000
O    -3.407000000    -2.251000000    -3.894000000
H    -3.017000000    -1.780000000    -3.158000000
H    -4.310000000    -1.933000000    -3.930000000
O    -2.238000000    -1.922000000    -6.501000000
H    -2.602000000    -2.086000000    -5.632000000
H    -2.350000000    -2.750000000    -6.968000000
O    -1.070000000     6.053000000    -2.154000000
H    -1.485000000     5.902000000    -1.305000000
H    -1.508000000     6.831000000    -2.500000000
O     1.972000000     6.064000000    -1.920000000
H     2.183000000     6.614000000    -1.165000000
H     1.033000000     6.190000000    -2.053000000
