158
-3023.18834
C    -0.753000000     0.157000000     1.249000000
H    -1.066000000     0.327000000     2.276000000
C     0.467000000     0.750000000     0.918000000
H     0.953000000     1.440000000     1.603000000
C     1.091000000     0.536000000    -0.296000000
H     2.073000000     1.041000000    -0.437000000
C     0.504000000    -0.391000000    -1.187000000
H     0.955000000    -0.559000000    -2.162000000
C    -0.761000000    -0.917000000    -0.881000000
H    -1.145000000    -1.682000000    -1.551000000
C    -1.397000000    -0.670000000     0.354000000
C    -2.797000000    -1.237000000     0.713000000
O    -3.189000000    -1.175000000     1.852000000
O    -3.327000000    -2.000000000    -0.064000000
O    -2.103000000    -3.524000000     2.623000000
H    -1.419000000    -3.216000000     3.217000000
H    -2.577000000    -2.731000000     2.372000000
O    -6.478000000     0.354000000    -2.095000000
H    -5.987000000     1.150000000    -2.298000000
H    -5.814000000    -0.334000000    -2.060000000
O    -5.713000000     2.286000000     4.347000000
H    -5.582000000     1.762000000     3.557000000
H    -4.953000000     2.867000000     4.379000000
O     5.400000000     0.790000000    -1.276000000
H     4.979000000     0.998000000    -0.441000000
H     5.454000000    -0.166000000    -1.285000000
O     4.970000000     4.041000000    -4.355000000
H     5.843000000     3.721000000    -4.582000000
H     4.532000000     3.286000000    -3.964000000
O     2.217000000     6.848000000     0.307000000
H     2.207000000     7.557000000    -0.336000000
H     1.730000000     6.138000000    -0.112000000
O     0.293000000    -2.891000000     3.906000000
H     0.878000000    -2.507000000     3.254000000
H     0.726000000    -2.727000000     4.744000000
O    -4.490000000     0.984000000     2.235000000
H    -4.097000000     0.115000000     2.155000000
H    -4.415000000     1.362000000     1.359000000
O    -4.549000000    -1.402000000    -2.354000000
H    -4.044000000    -1.464000000    -1.544000000
H    -4.077000000    -0.757000000    -2.882000000
O     2.830000000    -1.286000000     3.011000000
H     3.337000000    -0.626000000     2.539000000
H     2.505000000    -1.873000000     2.328000000
O    -1.616000000     2.010000000    -1.886000000
H    -1.324000000     1.235000000    -1.405000000
H    -1.393000000     1.824000000    -2.798000000
O     1.292000000    -2.521000000     1.111000000
H     0.790000000    -1.746000000     0.856000000
H     0.732000000    -3.259000000     0.869000000
O    -4.119000000    -5.203000000     4.010000000
H    -3.323000000    -4.783000000     3.683000000
H    -4.017000000    -5.202000000     4.961000000
O     3.336000000    -2.854000000    -1.276000000
H     3.209000000    -3.083000000    -0.356000000
H     4.220000000    -2.489000000    -1.313000000
O     7.345000000     0.911000000    -2.941000000
H     8.031000000     0.497000000    -2.418000000
H     6.589000000     0.952000000    -2.355000000
O     4.065000000     1.327000000    -3.672000000
H     4.764000000     0.946000000    -4.203000000
H     4.255000000     1.036000000    -2.780000000
O    -4.984000000    -4.466000000    -0.313000000
H    -4.460000000    -4.895000000     0.364000000
H    -4.705000000    -3.551000000    -0.288000000
O    -8.258000000    -2.862000000     1.053000000
H    -8.198000000    -2.897000000     0.099000000
H    -7.357000000    -2.725000000     1.346000000
O    -1.138000000     4.861000000    -2.196000000
H    -1.573000000     5.160000000    -1.398000000
H    -1.582000000     4.043000000    -2.419000000
O     2.482000000    -5.344000000    -1.814000000
H     2.643000000    -4.403000000    -1.877000000
H     3.289000000    -5.747000000    -2.135000000
O     4.433000000     0.973000000     1.759000000
H     4.252000000     1.548000000     2.502000000
H     5.356000000     1.129000000     1.555000000
O    -1.548000000    -1.003000000     6.641000000
H    -2.279000000    -1.094000000     6.029000000
H    -1.941000000    -1.133000000     7.504000000
O     6.432000000     3.437000000     1.516000000
H     6.748000000     4.334000000     1.413000000
H     5.484000000     3.502000000     1.399000000
O    -6.226000000    -3.585000000    -2.692000000
H    -5.676000000    -2.817000000    -2.850000000
H    -5.733000000    -4.106000000    -2.058000000
O     2.168000000     0.160000000    -5.665000000
H     1.650000000    -0.632000000    -5.521000000
H     2.538000000     0.363000000    -4.806000000
O    -3.706000000    -0.792000000     4.370000000
H    -4.247000000    -0.016000000     4.221000000
H    -3.507000000    -1.117000000     3.492000000
O    -2.767000000     0.049000000    -4.142000000
H    -3.282000000    -0.406000000    -4.809000000
H    -2.539000000     0.887000000    -4.546000000
O     5.841000000    -1.925000000    -0.968000000
H     6.417000000    -2.511000000    -1.459000000
H     6.153000000    -1.984000000    -0.065000000
O    -1.709000000     4.086000000     1.086000000
H    -2.651000000     3.939000000     1.171000000
H    -1.352000000     3.847000000     1.942000000
O     0.170000000    -4.929000000     0.012000000
H    -0.544000000    -4.643000000    -0.558000000
H     0.880000000    -5.154000000    -0.590000000
O    -2.734000000     2.872000000     3.660000000
H    -3.323000000     2.260000000     3.218000000
H    -2.017000000     2.325000000     3.981000000
O     1.419000000     4.121000000     0.189000000
H     0.562000000     4.123000000    -0.239000000
H     1.222000000     4.011000000     1.119000000
O     3.377000000     6.001000000     2.786000000
H     3.094000000     6.488000000     2.011000000
H     2.802000000     5.236000000     2.811000000
O    -5.992000000    -2.034000000     5.812000000
H    -5.141000000    -1.641000000     5.616000000
H    -5.815000000    -2.974000000     5.864000000
O    -7.944000000     0.537000000     0.286000000
H    -7.135000000     0.298000000     0.737000000
H    -7.674000000     0.703000000    -0.617000000
O    -3.153000000    -6.775000000    -0.638000000
H    -2.876000000    -6.057000000    -1.208000000
H    -3.888000000    -7.178000000    -1.101000000
O    -4.024000000     2.566000000    -0.041000000
H    -4.498000000     3.043000000    -0.723000000
H    -3.106000000     2.798000000    -0.182000000
O     0.009000000     2.419000000     4.667000000
H    -0.372000000     2.602000000     5.526000000
H     0.638000000     1.715000000     4.829000000
O     4.184000000     4.336000000    -0.242000000
H     4.379000000     3.604000000    -0.827000000
H     3.260000000     4.224000000    -0.019000000
O     2.008000000     0.374000000     5.048000000
H     2.467000000    -0.100000000     4.354000000
H     1.527000000    -0.304000000     5.523000000
O    -1.820000000    -4.051000000    -1.453000000
H    -2.630000000    -3.616000000    -1.187000000
H    -1.796000000    -3.951000000    -2.404000000
O     0.989000000     4.290000000     3.007000000
H     0.678000000     5.097000000     3.417000000
H     0.552000000     3.591000000     3.494000000
O     3.281000000    -2.079000000    -3.931000000
H     3.256000000    -2.221000000    -2.985000000
H     2.402000000    -2.310000000    -4.231000000
O    -5.943000000    -2.058000000     1.817000000
H    -5.061000000    -1.751000000     1.605000000
H    -5.850000000    -2.483000000     2.669000000
O     4.092000000     2.699000000     4.023000000
H     4.180000000     3.028000000     4.917000000
H     3.153000000     2.743000000     3.842000000
O    -1.764000000    -2.466000000    -4.042000000
H    -2.465000000    -2.843000000    -4.574000000
H    -2.006000000    -1.545000000    -3.945000000
O     0.997000000    -2.330000000    -5.167000000
H     0.998000000    -3.055000000    -5.792000000
H     0.136000000    -2.375000000    -4.750000000
O     1.144000000     4.162000000    -3.319000000
H     1.075000000     3.252000000    -3.028000000
H     0.373000000     4.591000000    -2.948000000
