158
-3041.11179
C    -0.450000000     0.431000000     1.376000000
H    -0.820000000     0.832000000     2.316000000
C     0.612000000     1.002000000     0.633000000
H     1.162000000     1.804000000     1.119000000
C     0.936000000     0.474000000    -0.582000000
H     1.784000000     0.939000000    -1.146000000
C     0.326000000    -0.661000000    -1.111000000
H     0.690000000    -1.214000000    -1.973000000
C    -0.760000000    -1.158000000    -0.424000000
H    -1.318000000    -1.963000000    -0.896000000
C    -1.239000000    -0.566000000     0.762000000
C    -2.530000000    -1.049000000     1.334000000
O    -2.972000000    -0.468000000     2.305000000
O    -3.020000000    -2.017000000     0.835000000
O     0.583000000     4.565000000     5.881000000
H     0.351000000     3.639000000     5.813000000
H     1.037000000     4.637000000     6.720000000
O    -0.559000000     0.654000000    -5.492000000
H    -1.185000000     0.342000000    -4.839000000
H     0.119000000    -0.021000000    -5.515000000
O     4.118000000    -2.391000000    -3.856000000
H     3.953000000    -1.451000000    -3.918000000
H     3.752000000    -2.643000000    -3.008000000
O    -1.857000000    -1.011000000     4.716000000
H    -2.624000000    -1.360000000     5.169000000
H    -2.207000000    -0.623000000     3.914000000
O    -1.262000000    -3.793000000     1.773000000
H    -1.881000000    -3.142000000     1.443000000
H    -1.747000000    -4.617000000     1.751000000
O     4.751000000     2.045000000    -1.018000000
H     4.236000000     1.746000000    -0.268000000
H     5.655000000     1.834000000    -0.787000000
O     3.054000000     4.707000000    -3.970000000
H     3.790000000     4.305000000    -3.508000000
H     2.717000000     4.012000000    -4.535000000
O     0.024000000     1.822000000     5.219000000
H     0.316000000     0.938000000     4.993000000
H     0.329000000     1.952000000     6.117000000
O    -4.222000000     1.661000000     3.138000000
H    -3.691000000     0.972000000     2.739000000
H    -5.106000000     1.296000000     3.168000000
O     1.670000000    -1.134000000    -5.982000000
H     1.647000000    -2.025000000    -6.331000000
H     2.458000000    -1.109000000    -5.440000000
O    -5.913000000     2.338000000     0.594000000
H    -6.739000000     2.204000000     0.129000000
H    -5.241000000     2.254000000    -0.082000000
O     2.704000000     2.781000000     3.366000000
H     2.971000000     3.668000000     3.124000000
H     1.901000000     2.903000000     3.874000000
O    -3.935000000     4.607000000     2.949000000
H    -3.841000000     3.658000000     3.026000000
H    -4.122000000     4.902000000     3.841000000
O     1.066000000    -0.754000000     4.823000000
H     1.539000000    -1.586000000     4.842000000
H     0.146000000    -1.003000000     4.733000000
O    -4.656000000    -6.035000000     2.205000000
H    -3.734000000    -6.267000000     2.096000000
H    -4.643000000    -5.110000000     2.453000000
O     7.318000000     0.943000000    -1.040000000
H     7.868000000     0.785000000    -0.272000000
H     7.452000000     0.173000000    -1.593000000
O    -7.151000000     1.262000000     3.042000000
H    -8.032000000     1.618000000     2.932000000
H    -6.600000000     1.808000000     2.481000000
O     1.236000000    -3.351000000     0.560000000
H     1.124000000    -2.500000000     0.983000000
H     0.381000000    -3.773000000     0.642000000
O     4.960000000    -1.883000000     0.250000000
H     5.507000000    -1.746000000    -0.524000000
H     4.686000000    -1.002000000     0.508000000
O    -4.459000000    -3.252000000     2.680000000
H    -4.079000000    -3.076000000     3.541000000
H    -3.964000000    -2.693000000     2.081000000
O    -7.329000000    -1.932000000     2.819000000
H    -6.962000000    -1.188000000     2.341000000
H    -6.566000000    -2.441000000     3.091000000
O    -5.102000000    -2.923000000    -3.238000000
H    -4.194000000    -3.080000000    -3.495000000
H    -5.114000000    -2.013000000    -2.942000000
O    -4.214000000    -2.330000000     5.408000000
H    -4.990000000    -2.889000000     5.386000000
H    -4.489000000    -1.557000000     5.901000000
O    -0.343000000    -5.193000000     4.048000000
H    -0.329000000    -4.401000000     3.512000000
H    -0.255000000    -4.875000000     4.947000000
O    -0.798000000    -5.569000000    -1.820000000
H    -0.172000000    -5.096000000    -2.369000000
H    -1.520000000    -5.784000000    -2.411000000
O     3.743000000     0.432000000     1.629000000
H     3.272000000     1.073000000     2.161000000
H     4.545000000     0.257000000     2.121000000
O     3.187000000     0.271000000    -4.194000000
H     3.978000000     0.618000000    -3.780000000
H     2.639000000     1.041000000    -4.345000000
O     5.760000000     1.402000000    -4.106000000
H     5.486000000     2.317000000    -4.039000000
H     6.267000000     1.245000000    -3.309000000
O     0.545000000    -3.644000000    -3.776000000
H     0.931000000    -3.382000000    -2.940000000
H     0.977000000    -3.087000000    -4.424000000
O    -1.975000000     1.965000000    -1.416000000
H    -1.677000000     2.864000000    -1.277000000
H    -1.397000000     1.434000000    -0.868000000
O    -2.421000000    -3.128000000    -3.910000000
H    -2.116000000    -2.299000000    -4.279000000
H    -1.620000000    -3.617000000    -3.725000000
O     6.810000000    -1.845000000    -2.028000000
H     7.709000000    -1.733000000    -2.339000000
H     6.519000000    -2.664000000    -2.428000000
O    -3.420000000    -4.571000000    -0.638000000
H    -3.122000000    -3.674000000    -0.488000000
H    -2.615000000    -5.076000000    -0.749000000
O    -2.896000000     2.047000000     5.532000000
H    -3.394000000     1.903000000     4.728000000
H    -1.980000000     2.001000000     5.258000000
O     4.476000000     5.636000000    -0.093000000
H     4.396000000     5.271000000     0.788000000
H     3.649000000     6.096000000    -0.238000000
O     4.468000000     4.645000000     2.619000000
H     4.585000000     5.563000000     2.865000000
H     5.329000000     4.250000000     2.750000000
O    -0.875000000    -3.268000000     5.957000000
H    -1.652000000    -3.373000000     6.506000000
H    -0.911000000    -2.358000000     5.663000000
O    -4.623000000     0.080000000     6.696000000
H    -4.102000000     0.827000000     6.402000000
H    -4.481000000     0.047000000     7.642000000
O     2.068000000    -5.557000000     1.477000000
H     1.973000000    -4.610000000     1.370000000
H     1.198000000    -5.908000000     1.288000000
O     0.197000000     5.026000000    -2.854000000
H     0.095000000     5.524000000    -2.043000000
H     1.115000000     4.753000000    -2.854000000
O    -5.978000000    -3.919000000    -0.858000000
H    -5.088000000    -4.268000000    -0.819000000
H    -6.068000000    -3.592000000    -1.753000000
O     5.279000000     3.900000000    -2.885000000
H     5.713000000     4.630000000    -2.444000000
H     5.009000000     3.318000000    -2.175000000
O    -5.752000000    -1.314000000     0.208000000
H    -5.950000000    -2.174000000    -0.163000000
H    -4.873000000    -1.409000000     0.575000000
O     2.802000000    -3.480000000    -1.619000000
H     3.551000000    -3.753000000    -1.089000000
H     2.101000000    -3.333000000    -0.984000000
O     3.941000000     0.890000000     5.410000000
H     3.913000000    -0.013000000     5.093000000
H     3.294000000     1.352000000     4.877000000
O     2.250000000     2.560000000    -5.538000000
H     1.312000000     2.452000000    -5.694000000
H     2.661000000     2.297000000    -6.361000000
O    -4.887000000    -0.284000000    -2.337000000
H    -4.603000000     0.616000000    -2.495000000
H    -5.229000000    -0.274000000    -1.443000000
O    -2.032000000    -0.321000000    -3.597000000
H    -1.840000000     0.370000000    -2.963000000
H    -2.894000000    -0.648000000    -3.340000000
