158
-3036.09864
C    -1.309000000    -0.382000000     0.571000000
H    -2.258000000    -0.583000000     1.061000000
C    -0.278000000     0.203000000     1.269000000
H    -0.479000000     0.436000000     2.311000000
C     0.942000000     0.410000000     0.635000000
H     1.759000000     0.746000000     1.374000000
C     1.108000000     0.143000000    -0.700000000
H     2.077000000     0.269000000    -1.177000000
C    -0.013000000    -0.292000000    -1.446000000
H     0.045000000    -0.449000000    -2.520000000
C    -1.232000000    -0.431000000    -0.803000000
C    -2.422000000    -0.865000000    -1.653000000
O    -3.493000000    -1.369000000    -1.238000000
O    -2.318000000    -0.839000000    -2.870000000
O    -0.766000000    -4.638000000     0.252000000
H    -0.638000000    -5.131000000    -0.559000000
H    -0.292000000    -3.819000000     0.111000000
O    -2.933000000    -4.594000000     2.105000000
H    -2.147000000    -4.603000000     1.559000000
H    -3.656000000    -4.516000000     1.484000000
O     5.401000000    -0.406000000    -1.452000000
H     5.050000000     0.415000000    -1.107000000
H     6.057000000    -0.135000000    -2.095000000
O     3.012000000    -1.858000000     4.654000000
H     2.983000000    -2.726000000     5.057000000
H     3.730000000    -1.911000000     4.023000000
O    -6.951000000    -1.144000000    -4.890000000
H    -6.038000000    -0.869000000    -4.972000000
H    -7.456000000    -0.351000000    -5.069000000
O    -4.380000000     0.244000000    -4.355000000
H    -3.591000000    -0.182000000    -4.018000000
H    -4.939000000     0.355000000    -3.586000000
O    -5.733000000     2.703000000    -3.339000000
H    -5.719000000     1.940000000    -2.761000000
H    -4.810000000     2.913000000    -3.481000000
O     5.032000000    -2.253000000     2.790000000
H     5.153000000    -2.279000000     1.841000000
H     5.326000000    -1.378000000     3.045000000
O    -3.616000000    -5.912000000    -1.857000000
H    -4.249000000    -6.556000000    -2.173000000
H    -2.804000000    -6.406000000    -1.749000000
O     3.325000000    -0.634000000    -3.187000000
H     3.092000000    -1.562000000    -3.201000000
H     4.073000000    -0.583000000    -2.592000000
O     1.378000000     4.208000000    -2.930000000
H     1.369000000     4.306000000    -1.978000000
H     1.357000000     3.262000000    -3.074000000
O     1.162000000     4.870000000    -0.193000000
H     0.715000000     5.603000000    -0.616000000
H     0.489000000     4.194000000    -0.113000000
O    -3.544000000     1.518000000    -6.722000000
H    -4.087000000     2.184000000    -6.301000000
H    -3.431000000     0.842000000    -6.053000000
O    -2.536000000     4.085000000    -3.089000000
H    -2.099000000     3.323000000    -3.468000000
H    -3.089000000     4.420000000    -3.795000000
O     1.486000000     1.331000000     3.994000000
H     2.038000000     0.556000000     3.885000000
H     2.005000000     2.047000000     3.628000000
O    -2.501000000    -2.001000000     4.382000000
H    -3.349000000    -1.921000000     4.817000000
H    -2.237000000    -1.098000000     4.203000000
O    -3.112000000     2.193000000     3.128000000
H    -2.274000000     2.009000000     3.552000000
H    -3.012000000     3.075000000     2.772000000
O     0.458000000     2.158000000    -5.409000000
H     0.975000000     1.445000000    -5.783000000
H     0.809000000     2.949000000    -5.819000000
O    -5.583000000    -1.566000000     1.736000000
H    -4.988000000    -2.050000000     1.164000000
H    -5.315000000    -0.652000000     1.642000000
O     1.897000000    -0.287000000     6.701000000
H     2.092000000    -0.641000000     5.834000000
H     1.364000000     0.490000000     6.529000000
O    -7.408000000    -3.651000000    -0.076000000
H    -7.779000000    -3.747000000     0.801000000
H    -6.478000000    -3.847000000     0.034000000
O     7.800000000     0.212000000     0.544000000
H     7.469000000    -0.186000000    -0.261000000
H     8.471000000    -0.396000000     0.854000000
O    -0.866000000     2.772000000    -0.869000000
H    -1.473000000     2.660000000    -1.601000000
H    -0.647000000     1.880000000    -0.601000000
O    -1.727000000     1.702000000    -3.767000000
H    -1.667000000     0.780000000    -3.519000000
H    -1.146000000     1.785000000    -4.523000000
O     2.981000000     6.718000000     1.158000000
H     2.676000000     7.606000000     0.974000000
H     2.306000000     6.151000000     0.784000000
O     3.996000000     2.662000000     2.994000000
H     4.704000000     2.024000000     2.903000000
H     3.661000000     2.777000000     2.105000000
O     2.078000000    -3.423000000    -3.421000000
H     2.729000000    -3.630000000    -4.091000000
H     1.253000000    -3.354000000    -3.902000000
O    -1.605000000     5.048000000     3.892000000
H    -2.041000000     4.769000000     4.697000000
H    -2.173000000     4.732000000     3.190000000
O     2.701000000    -3.766000000    -0.762000000
H     2.453000000    -3.719000000    -1.686000000
H     2.144000000    -3.118000000    -0.331000000
O    -5.507000000     0.364000000    -1.839000000
H    -6.287000000    -0.162000000    -1.664000000
H    -4.782000000    -0.166000000    -1.510000000
O     6.087000000     0.488000000     2.528000000
H     6.489000000     0.286000000     1.683000000
H     6.791000000     0.363000000     3.164000000
O    -0.986000000     1.768000000     4.868000000
H    -0.078000000     1.577000000     4.633000000
H    -1.059000000     1.492000000     5.782000000
O     1.110000000    -2.431000000     1.004000000
H     0.934000000    -2.596000000     1.931000000
H     0.791000000    -1.541000000     0.855000000
O    -7.758000000    -1.095000000    -1.216000000
H    -7.408000000    -1.390000000    -0.375000000
H    -7.827000000    -1.893000000    -1.740000000
O    -5.413000000     1.035000000     2.292000000
H    -5.966000000     0.696000000     2.996000000
H    -4.799000000     1.623000000     2.732000000
O    -1.414000000    -1.868000000    -5.646000000
H    -1.726000000    -1.404000000    -4.869000000
H    -1.730000000    -2.765000000    -5.532000000
O    -5.251000000    -2.348000000     4.417000000
H    -5.364000000    -3.292000000     4.307000000
H    -5.363000000    -1.990000000     3.536000000
O     3.427000000     3.601000000     0.558000000
H     3.890000000     4.391000000     0.277000000
H     2.505000000     3.788000000     0.377000000
O     4.507000000     2.422000000    -1.905000000
H     5.360000000     2.806000000    -2.110000000
H     4.179000000     2.944000000    -1.173000000
O     4.020000000     3.462000000     5.538000000
H     4.159000000     3.075000000     4.673000000
H     3.238000000     4.004000000     5.436000000
O    -4.613000000    -3.608000000    -0.497000000
H    -4.155000000    -4.310000000    -0.958000000
H    -4.183000000    -2.806000000    -0.794000000
O     5.492000000    -0.814000000     6.502000000
H     4.661000000    -0.691000000     6.043000000
H     5.441000000    -1.702000000     6.855000000
O     0.718000000    -0.332000000    -6.933000000
H     1.340000000    -1.029000000    -7.142000000
H     0.021000000    -0.771000000    -6.446000000
O     4.153000000     6.321000000     3.695000000
H     3.910000000     6.406000000     2.773000000
H     4.344000000     5.390000000     3.807000000
O     3.533000000     1.968000000    -4.353000000
H     4.014000000     1.978000000    -3.525000000
H     3.111000000     1.110000000    -4.374000000
O     5.069000000    -2.755000000     0.157000000
H     4.207000000    -3.111000000    -0.059000000
H     5.270000000    -2.160000000    -0.566000000
O     0.118000000    -2.742000000     3.474000000
H    -0.823000000    -2.574000000     3.527000000
H     0.408000000    -2.769000000     4.386000000
O    -2.151000000    -3.722000000    -3.503000000
H    -2.290000000    -2.986000000    -2.908000000
H    -2.602000000    -4.456000000    -3.086000000
