158
-3037.12787
C    -1.125000000    -0.733000000    -0.661000000
H    -2.041000000    -1.141000000    -1.082000000
C    -0.976000000    -0.435000000     0.695000000
H    -1.725000000    -0.672000000     1.445000000
C     0.135000000     0.219000000     1.166000000
H     0.233000000     0.457000000     2.193000000
C     1.132000000     0.674000000     0.342000000
H     1.943000000     1.347000000     0.606000000
C     1.035000000     0.323000000    -1.001000000
H     1.760000000     0.675000000    -1.730000000
C    -0.106000000    -0.381000000    -1.503000000
C    -0.236000000    -0.681000000    -2.972000000
O    -1.312000000    -0.871000000    -3.527000000
O     0.796000000    -0.452000000    -3.644000000
O    -4.130000000     1.858000000     0.361000000
H    -4.917000000     2.333000000     0.630000000
H    -3.488000000     2.054000000     1.043000000
O    -1.667000000     4.101000000     5.542000000
H    -1.433000000     3.329000000     6.057000000
H    -1.912000000     3.751000000     4.685000000
O    -2.983000000     5.529000000     2.810000000
H    -2.584000000     4.659000000     2.795000000
H    -2.929000000     5.833000000     1.904000000
O     1.413000000    -4.153000000    -0.613000000
H     1.226000000    -3.647000000     0.177000000
H     0.620000000    -4.669000000    -0.760000000
O    -1.685000000    -0.679000000    -6.146000000
H    -1.476000000    -0.325000000    -5.282000000
H    -1.592000000    -1.626000000    -6.047000000
O     1.529000000    -5.252000000    -5.054000000
H     0.753000000    -4.851000000    -4.663000000
H     1.312000000    -5.335000000    -5.983000000
O    -2.472000000     0.917000000     6.913000000
H    -2.646000000     1.378000000     7.733000000
H    -2.023000000     0.115000000     7.180000000
O    -4.773000000    -1.910000000    -5.647000000
H    -4.204000000    -1.182000000    -5.896000000
H    -4.830000000    -2.450000000    -6.435000000
O     0.360000000    -3.122000000     2.016000000
H     0.288000000    -3.171000000     2.969000000
H    -0.324000000    -2.505000000     1.755000000
O     4.048000000    -1.640000000    -7.102000000
H     3.764000000    -0.844000000    -7.552000000
H     3.362000000    -1.808000000    -6.456000000
O     0.677000000     4.357000000    -4.504000000
H     0.310000000     4.817000000    -5.259000000
H     0.620000000     3.431000000    -4.736000000
O    -3.182000000    -2.835000000    -3.239000000
H    -3.722000000    -2.695000000    -4.017000000
H    -2.577000000    -2.094000000    -3.230000000
O     0.314000000     1.802000000     5.265000000
H     0.975000000     2.449000000     5.020000000
H     0.063000000     2.041000000     6.157000000
O     2.919000000    -2.230000000     4.822000000
H     2.790000000    -3.134000000     4.536000000
H     2.054000000    -1.828000000     4.744000000
O    -3.161000000    -1.905000000     3.350000000
H    -3.668000000    -2.352000000     4.028000000
H    -3.766000000    -1.824000000     2.613000000
O     3.404000000     4.583000000     1.248000000
H     4.178000000     4.358000000     1.763000000
H     3.710000000     4.579000000     0.341000000
O     3.612000000    -3.806000000    -4.303000000
H     4.183000000    -4.184000000    -4.972000000
H     2.760000000    -4.216000000    -4.456000000
O    -1.163000000    -3.543000000     4.914000000
H    -1.962000000    -3.231000000     4.489000000
H    -1.114000000    -4.470000000     4.681000000
O     0.574000000     4.556000000     1.094000000
H     1.511000000     4.628000000     0.913000000
H     0.156000000     4.656000000     0.239000000
O    -5.090000000    -2.096000000     1.243000000
H    -5.787000000    -2.752000000     1.259000000
H    -5.171000000    -1.681000000     0.385000000
O    -2.413000000     0.750000000     4.080000000
H    -2.561000000    -0.165000000     3.842000000
H    -2.290000000     0.734000000     5.029000000
O    -1.561000000     2.043000000    -7.505000000
H    -2.361000000     1.518000000    -7.541000000
H    -0.948000000     1.513000000    -6.996000000
O     0.516000000     1.738000000    -5.354000000
H     1.239000000     1.667000000    -5.978000000
H     0.587000000     0.949000000    -4.816000000
O     3.930000000     4.113000000    -1.299000000
H     3.707000000     3.198000000    -1.471000000
H     3.656000000     4.579000000    -2.089000000
O     3.674000000     0.101000000     3.537000000
H     3.352000000    -0.609000000     4.093000000
H     3.465000000    -0.179000000     2.646000000
O     3.463000000    -1.215000000    -3.361000000
H     2.732000000    -0.649000000    -3.607000000
H     3.090000000    -2.096000000    -3.349000000
O     1.873000000     4.060000000     3.912000000
H     1.313000000     3.987000000     3.139000000
H     2.755000000     3.880000000     3.587000000
O    -2.551000000     1.582000000    -3.128000000
H    -3.425000000     1.216000000    -2.998000000
H    -2.001000000     0.824000000    -3.327000000
O    -5.195000000     0.228000000     4.893000000
H    -4.309000000     0.426000000     4.588000000
H    -5.472000000     1.020000000     5.353000000
O    -3.207000000     4.130000000    -3.706000000
H    -3.112000000     4.469000000    -4.596000000
H    -2.696000000     3.320000000    -3.702000000
O    -1.478000000     2.493000000    -0.797000000
H    -0.971000000     1.808000000    -0.360000000
H    -1.866000000     2.056000000    -1.555000000
O    -1.502000000    -1.697000000     7.076000000
H    -1.076000000    -2.158000000     6.353000000
H    -2.076000000    -2.352000000     7.473000000
O     4.678000000     2.027000000    -5.796000000
H     4.790000000     1.641000000    -4.927000000
H     5.558000000     2.029000000    -6.173000000
O    -2.318000000    -3.943000000    -1.070000000
H    -2.444000000    -3.246000000    -0.426000000
H    -2.579000000    -3.549000000    -1.903000000
O     4.421000000     2.596000000     4.320000000
H     4.282000000     2.549000000     5.266000000
H     4.118000000     1.749000000     3.992000000
O     4.773000000     0.212000000    -1.071000000
H     4.180000000    -0.373000000    -1.543000000
H     5.161000000     0.760000000    -1.753000000
O    -6.639000000    -2.855000000    -3.069000000
H    -6.719000000    -2.532000000    -3.967000000
H    -6.098000000    -2.201000000    -2.627000000
O    -4.997000000    -0.832000000    -1.207000000
H    -4.401000000    -0.202000000    -0.803000000
H    -5.855000000    -0.407000000    -1.171000000
O    -0.920000000    -3.282000000    -7.132000000
H    -0.530000000    -4.156000000    -7.111000000
H    -1.808000000    -3.424000000    -7.460000000
O     3.809000000    -0.955000000     6.996000000
H     3.703000000    -1.267000000     6.097000000
H     3.770000000    -0.001000000     6.924000000
O     1.236000000    -1.793000000    -5.871000000
H     0.516000000    -2.353000000    -6.162000000
H     0.868000000    -1.287000000    -5.147000000
O    -0.503000000     4.940000000    -1.768000000
H    -0.200000000     4.825000000    -2.669000000
H    -0.863000000     4.087000000    -1.527000000
O     6.072000000    -0.950000000     1.617000000
H     6.188000000    -0.028000000     1.845000000
H     5.849000000    -0.941000000     0.686000000
O     2.515000000     1.334000000    -7.096000000
H     3.303000000     1.582000000    -6.612000000
H     2.787000000     1.336000000    -8.013000000
O     0.661000000    -0.881000000     4.420000000
H     0.473000000     0.051000000     4.533000000
H    -0.091000000    -1.326000000     4.810000000
O    -2.151000000     3.081000000     2.429000000
H    -2.184000000     2.263000000     2.925000000
H    -1.460000000     2.940000000     1.781000000
O     0.045000000    -0.435000000    -8.197000000
H     0.742000000    -0.738000000    -7.615000000
H    -0.761000000    -0.580000000    -7.702000000
O    -4.903000000    -4.871000000    -3.741000000
H    -5.634000000    -4.267000000    -3.611000000
H    -4.149000000    -4.418000000    -3.364000000
