158
-3035.33911
C    -1.056000000    -0.784000000    -0.583000000
H    -2.016000000    -1.187000000    -0.895000000
C    -0.807000000    -0.666000000     0.794000000
H    -1.532000000    -1.066000000     1.497000000
C     0.372000000    -0.008000000     1.197000000
H     0.726000000     0.046000000     2.258000000
C     1.237000000     0.581000000     0.221000000
H     2.117000000     1.131000000     0.543000000
C     0.910000000     0.436000000    -1.121000000
H     1.466000000     0.930000000    -1.914000000
C    -0.295000000    -0.117000000    -1.519000000
C    -0.822000000     0.121000000    -2.940000000
O    -1.983000000    -0.105000000    -3.077000000
O    -0.205000000     0.516000000    -3.928000000
O    -4.202000000     3.274000000     0.661000000
H    -4.675000000     3.970000000     1.117000000
H    -3.506000000     3.021000000     1.268000000
O    -1.991000000    -5.266000000    -2.451000000
H    -2.069000000    -6.138000000    -2.839000000
H    -2.236000000    -4.667000000    -3.156000000
O     6.567000000    -1.131000000    -1.579000000
H     6.363000000    -0.237000000    -1.306000000
H     5.789000000    -1.419000000    -2.057000000
O    -3.849000000    -3.937000000    -6.827000000
H    -3.637000000    -3.465000000    -7.632000000
H    -3.909000000    -3.255000000    -6.158000000
O     1.322000000    -3.295000000     0.890000000
H     0.538000000    -3.832000000     0.776000000
H     1.011000000    -2.394000000     0.792000000
O    -5.754000000     1.441000000    -5.376000000
H    -5.692000000     2.351000000    -5.667000000
H    -5.263000000     1.418000000    -4.555000000
O     3.839000000    -3.527000000    -0.073000000
H     2.998000000    -3.279000000     0.311000000
H     3.610000000    -3.943000000    -0.904000000
O    -1.155000000     0.793000000    -6.321000000
H    -0.770000000     0.705000000    -5.449000000
H    -2.098000000     0.708000000    -6.176000000
O     0.449000000    -2.192000000    -5.463000000
H     0.083000000    -2.349000000    -6.334000000
H    -0.265000000    -1.785000000    -4.973000000
O    -4.699000000    -1.823000000    -5.580000000
H    -4.591000000    -0.928000000    -5.902000000
H    -5.637000000    -1.995000000    -5.663000000
O     1.812000000    -3.286000000     3.546000000
H     0.881000000    -3.095000000     3.661000000
H     1.956000000    -3.219000000     2.603000000
O     3.775000000     0.566000000    -3.010000000
H     4.322000000     1.243000000    -3.408000000
H     3.125000000     0.359000000    -3.682000000
O     1.885000000     5.293000000    -3.343000000
H     1.726000000     5.923000000    -4.046000000
H     1.384000000     4.518000000    -3.598000000
O     0.204000000     1.354000000    -8.594000000
H    -0.437000000     1.925000000    -9.017000000
H    -0.198000000     1.124000000    -7.756000000
O    -2.915000000    -2.542000000    -3.332000000
H    -3.673000000    -2.430000000    -3.907000000
H    -2.537000000    -1.665000000    -3.262000000
O     2.792000000     1.969000000     3.159000000
H     2.416000000     2.626000000     2.572000000
H     3.710000000     1.907000000     2.893000000
O     5.909000000     2.347000000     3.434000000
H     6.299000000     3.089000000     2.972000000
H     6.461000000     2.230000000     4.207000000
O     2.832000000    -1.603000000     5.766000000
H     2.309000000    -1.795000000     4.987000000
H     3.384000000    -0.865000000     5.507000000
O    -1.108000000    -3.875000000     4.430000000
H    -1.799000000    -4.535000000     4.486000000
H    -1.564000000    -3.072000000     4.178000000
O    -2.548000000    -1.439000000     4.193000000
H    -3.380000000    -1.705000000     4.585000000
H    -2.747000000    -1.325000000     3.263000000
O     2.819000000    -3.459000000    -5.603000000
H     2.724000000    -3.813000000    -6.488000000
H     1.973000000    -3.053000000    -5.416000000
O     0.404000000    -3.496000000     6.888000000
H    -0.120000000    -3.339000000     6.102000000
H     1.264000000    -3.131000000     6.680000000
O     1.525000000     4.017000000     1.338000000
H     1.404000000     4.806000000     0.808000000
H     0.729000000     3.506000000     1.191000000
O    -4.672000000    -1.248000000     1.506000000
H    -4.644000000    -0.786000000     0.669000000
H    -5.066000000    -0.621000000     2.113000000
O    -0.839000000     0.796000000     4.580000000
H    -1.138000000    -0.112000000     4.538000000
H    -0.586000000     0.922000000     5.495000000
O    -2.355000000     3.879000000    -3.479000000
H    -2.560000000     2.945000000    -3.443000000
H    -1.400000000     3.912000000    -3.534000000
O     0.477000000     3.066000000    -4.353000000
H     0.883000000     3.240000000    -5.202000000
H     0.245000000     2.138000000    -4.384000000
O    -7.136000000    -3.059000000     0.068000000
H    -6.210000000    -3.294000000     0.010000000
H    -7.269000000    -2.432000000    -0.643000000
O     0.920000000     6.036000000    -0.272000000
H     1.046000000     5.429000000    -1.002000000
H     0.771000000     6.884000000    -0.689000000
O     5.782000000    -0.445000000     3.603000000
H     5.793000000     0.491000000     3.401000000
H     5.704000000    -0.873000000     2.751000000
O     4.203000000    -2.164000000    -3.391000000
H     3.780000000    -2.548000000    -4.159000000
H     3.935000000    -1.245000000    -3.404000000
O     1.830000000     5.795000000     4.318000000
H     1.768000000     4.972000000     3.833000000
H     2.028000000     6.452000000     3.650000000
O     5.725000000    -1.969000000     1.008000000
H     6.101000000    -1.603000000     0.208000000
H     4.930000000    -2.416000000     0.717000000
O    -4.292000000     1.296000000    -3.175000000
H    -4.766000000     1.033000000    -2.386000000
H    -3.545000000     0.699000000    -3.216000000
O    -4.305000000     1.591000000     4.144000000
H    -3.548000000     1.948000000     3.679000000
H    -4.646000000     2.328000000     4.649000000
O    -1.016000000     3.076000000     0.175000000
H    -1.531000000     2.328000000    -0.126000000
H    -1.288000000     3.798000000    -0.392000000
O    -0.959000000    -4.474000000     0.230000000
H    -1.745000000    -4.231000000     0.720000000
H    -1.291000000    -4.839000000    -0.590000000
O     5.356000000     3.773000000    -0.368000000
H     4.844000000     4.576000000    -0.270000000
H     5.922000000     3.939000000    -1.122000000
O    -7.060000000    -1.343000000    -2.083000000
H    -7.582000000    -0.926000000    -2.769000000
H    -6.732000000    -0.615000000    -1.555000000
O    -5.399000000     0.907000000    -0.628000000
H    -4.912000000     1.658000000    -0.290000000
H    -6.318000000     1.165000000    -0.556000000
O     2.126000000    -6.075000000     3.725000000
H     1.891000000    -5.167000000     3.534000000
H     2.954000000    -6.209000000     3.264000000
O     2.008000000    -0.113000000    -4.996000000
H     1.705000000    -0.890000000    -5.466000000
H     1.244000000     0.180000000    -4.500000000
O     5.700000000     1.155000000    -0.371000000
H     4.840000000     1.234000000     0.041000000
H     5.957000000     2.057000000    -0.563000000
O     3.869000000     1.011000000     6.135000000
H     3.565000000     0.929000000     5.232000000
H     3.291000000     1.668000000     6.524000000
O    -2.104000000     2.328000000     2.703000000
H    -1.580000000     1.768000000     3.277000000
H    -1.459000000     2.843000000     2.218000000
O     1.516000000     3.318000000    -6.817000000
H     2.397000000     3.215000000    -7.176000000
H     1.009000000     2.613000000    -7.221000000
O    -3.181000000    -3.640000000     1.476000000
H    -3.840000000    -2.959000000     1.339000000
H    -3.539000000    -4.182000000     2.179000000
O    -4.746000000    -3.588000000    -1.371000000
H    -5.269000000    -3.057000000    -1.972000000
H    -3.847000000    -3.492000000    -1.686000000
