158
-3061.54564
C    -1.376000000    -0.439000000     0.132000000
H    -2.382000000    -0.763000000     0.388000000
C    -0.609000000     0.184000000     1.065000000
H    -0.908000000     0.320000000     2.101000000
C     0.641000000     0.533000000     0.846000000
H     1.170000000     1.124000000     1.618000000
C     1.210000000     0.384000000    -0.415000000
H     2.252000000     0.654000000    -0.564000000
C     0.476000000    -0.218000000    -1.442000000
H     0.762000000    -0.414000000    -2.473000000
C    -0.840000000    -0.630000000    -1.154000000
C    -1.830000000    -1.111000000    -2.241000000
O    -2.866000000    -1.505000000    -1.906000000
O    -1.476000000    -1.187000000    -3.382000000
O    -0.975000000    -4.413000000    -2.042000000
H    -1.924000000    -4.536000000    -2.020000000
H    -0.813000000    -3.949000000    -2.863000000
O     2.369000000    -2.931000000     2.011000000
H     2.711000000    -3.742000000     1.636000000
H     1.496000000    -2.839000000     1.629000000
O    -5.285000000     0.685000000    -5.931000000
H    -4.883000000     1.465000000    -6.313000000
H    -5.035000000     0.714000000    -5.008000000
O    -1.937000000    -0.497000000    -6.316000000
H    -2.105000000    -0.548000000    -5.375000000
H    -2.405000000    -1.246000000    -6.684000000
O    -6.635000000    -2.542000000    -1.710000000
H    -7.556000000    -2.471000000    -1.459000000
H    -6.307000000    -1.644000000    -1.676000000
O     1.941000000    -2.828000000     4.738000000
H     1.216000000    -2.224000000     4.577000000
H     2.428000000    -2.842000000     3.915000000
O     3.634000000    -1.618000000    -4.638000000
H     2.906000000    -2.137000000    -4.295000000
H     3.352000000    -0.710000000    -4.530000000
O    -0.273000000     5.252000000    -2.282000000
H    -1.108000000     5.573000000    -2.620000000
H    -0.494000000     4.438000000    -1.830000000
O    -3.958000000     2.484000000    -3.996000000
H    -3.995000000     3.260000000    -3.437000000
H    -3.111000000     2.085000000    -3.796000000
O    -3.480000000    -2.680000000    -4.392000000
H    -4.352000000    -2.308000000    -4.516000000
H    -3.092000000    -2.155000000    -3.692000000
O     2.408000000     3.192000000     7.174000000
H     2.175000000     3.769000000     6.446000000
H     2.482000000     2.324000000     6.776000000
O     3.966000000    -0.155000000     2.693000000
H     3.523000000    -0.743000000     2.082000000
H     4.490000000     0.420000000     2.135000000
O     5.682000000     2.378000000     1.717000000
H     6.156000000     2.529000000     0.899000000
H     4.854000000     2.843000000     1.603000000
O     5.247000000    -1.570000000     4.820000000
H     4.612000000    -1.313000000     4.151000000
H     4.820000000    -1.359000000     5.650000000
O    -0.378000000    -1.611000000     4.154000000
H    -0.938000000    -2.088000000     3.542000000
H    -0.402000000    -0.705000000     3.846000000
O    -1.603000000     1.157000000     4.576000000
H    -2.391000000     0.639000000     4.413000000
H    -1.876000000     2.062000000     4.425000000
O     4.027000000     5.522000000     3.394000000
H     3.695000000     4.840000000     3.978000000
H     4.937000000     5.274000000     3.230000000
O    -1.898000000    -1.139000000     6.399000000
H    -2.251000000    -1.890000000     6.877000000
H    -1.515000000    -1.518000000     5.608000000
O     0.462000000     4.347000000     2.613000000
H     0.578000000     5.111000000     2.047000000
H    -0.487000000     4.234000000     2.670000000
O    -5.957000000    -2.136000000     1.413000000
H    -5.314000000    -2.560000000     0.844000000
H    -5.514000000    -1.350000000     1.732000000
O    -4.231000000    -0.506000000     5.171000000
H    -3.475000000    -0.582000000     5.753000000
H    -4.277000000    -1.353000000     4.727000000
O    -0.659000000     2.743000000    -1.182000000
H    -1.103000000     2.433000000    -1.971000000
H    -0.141000000     1.993000000    -0.889000000
O    -1.273000000     1.540000000    -3.675000000
H    -1.219000000     0.587000000    -3.753000000
H    -0.433000000     1.855000000    -4.009000000
O    -5.490000000    -4.907000000    -1.378000000
H    -6.102000000    -4.185000000    -1.523000000
H    -4.960000000    -4.936000000    -2.174000000
O     6.707000000    -0.618000000     0.496000000
H     6.550000000     0.200000000     0.025000000
H     5.977000000    -1.184000000     0.243000000
O     4.460000000    -2.995000000    -2.286000000
H     5.256000000    -3.507000000    -2.432000000
H     4.302000000    -2.556000000    -3.121000000
O    -1.717000000     3.794000000     4.355000000
H    -2.479000000     4.222000000     3.964000000
H    -1.655000000     4.170000000     5.233000000
O     4.271000000    -1.575000000     0.068000000
H     4.263000000    -2.160000000    -0.690000000
H     3.826000000    -2.069000000     0.756000000
O    -5.241000000     0.028000000    -2.357000000
H    -4.985000000     0.835000000    -1.912000000
H    -4.478000000    -0.544000000    -2.274000000
O    -2.658000000     2.404000000     1.194000000
H    -2.266000000     2.585000000     2.049000000
H    -1.915000000     2.375000000     0.591000000
O     1.146000000     1.053000000     5.476000000
H     1.438000000     0.374000000     6.083000000
H     0.194000000     1.068000000     5.573000000
O    -1.279000000    -3.785000000    -5.762000000
H    -1.910000000    -3.439000000    -5.132000000
H    -1.210000000    -4.715000000    -5.546000000
O     0.105000000    -3.375000000     0.641000000
H    -0.457000000    -3.039000000     1.339000000
H    -0.453000000    -3.373000000    -0.137000000
O     2.578000000     5.408000000    -0.093000000
H     2.514000000     5.788000000    -0.969000000
H     3.270000000     5.910000000     0.337000000
O    -4.515000000     0.283000000     1.843000000
H    -5.283000000     0.810000000     2.061000000
H    -3.875000000     0.915000000     1.515000000
O     1.475000000     0.356000000    -7.244000000
H     0.990000000    -0.390000000    -6.892000000
H     0.895000000     0.727000000    -7.909000000
O     3.819000000     2.434000000    -1.540000000
H     3.567000000     2.450000000    -0.616000000
H     3.390000000     3.201000000    -1.918000000
O     6.364000000     0.973000000    -1.666000000
H     6.712000000     1.791000000    -1.309000000
H     5.434000000     1.149000000    -1.806000000
O     1.993000000     3.251000000     4.305000000
H     1.620000000     2.416000000     4.588000000
H     1.332000000     3.623000000     3.721000000
O    -3.604000000    -3.130000000     0.024000000
H    -3.998000000    -3.751000000    -0.589000000
H    -3.209000000    -2.461000000    -0.535000000
O    -4.920000000     2.267000000    -0.405000000
H    -4.031000000     2.315000000    -0.054000000
H    -5.449000000     1.946000000     0.325000000
O     0.810000000    -2.072000000    -4.600000000
H     0.380000000    -2.470000000    -5.357000000
H     0.089000000    -1.777000000    -4.043000000
O     2.975000000     2.868000000     1.226000000
H     2.815000000     3.804000000     1.104000000
H     2.500000000     2.647000000     2.028000000
O     3.562000000     1.158000000    -3.946000000
H     4.163000000     1.780000000    -4.357000000
H     3.688000000     1.290000000    -3.006000000
O     4.707000000     1.968000000     4.895000000
H     4.724000000     1.348000000     4.167000000
H     3.886000000     2.448000000     4.781000000
O     1.230000000     2.251000000    -4.851000000
H     1.976000000     1.849000000    -4.404000000
H     1.220000000     1.841000000    -5.715000000
O    -2.152000000    -2.920000000     2.531000000
H    -2.718000000    -2.952000000     1.760000000
H    -2.248000000    -3.783000000     2.935000000
O    -3.579000000    -5.023000000    -3.243000000
H    -3.770000000    -5.782000000    -3.794000000
H    -3.891000000    -4.273000000    -3.750000000
