158
-2996.17538
C     1.347000000     0.534000000     0.285000000
H     2.322000000     0.986000000     0.448000000
C     0.187000000     0.984000000     0.908000000
H     0.163000000     1.937000000     1.429000000
C    -1.042000000     0.370000000     0.649000000
H    -1.979000000     0.901000000     1.013000000
C    -1.077000000    -0.750000000    -0.157000000
H    -2.004000000    -1.248000000    -0.427000000
C     0.136000000    -1.264000000    -0.730000000
H     0.150000000    -2.166000000    -1.335000000
C     1.406000000    -0.637000000    -0.469000000
C     2.657000000    -1.058000000    -1.255000000
O     2.581000000    -1.512000000    -2.380000000
O     3.691000000    -0.836000000    -0.712000000
O    -1.232000000     5.476000000     0.033000000
H    -1.844000000     6.141000000    -0.281000000
H    -1.609000000     4.646000000    -0.260000000
O     1.549000000    -2.758000000    -4.659000000
H     1.895000000    -2.300000000    -3.894000000
H     0.697000000    -2.349000000    -4.818000000
O     1.268000000     2.566000000    -2.713000000
H     1.380000000     3.445000000    -3.074000000
H     1.126000000     2.009000000    -3.479000000
O    -6.594000000     2.264000000     4.950000000
H    -6.259000000     1.615000000     4.332000000
H    -7.519000000     2.356000000     4.723000000
O    -2.207000000     4.437000000     2.474000000
H    -1.701000000     4.546000000     3.279000000
H    -1.704000000     4.908000000     1.809000000
O     5.337000000     1.312000000    -0.003000000
H     5.655000000     0.941000000     0.820000000
H     4.721000000     0.660000000    -0.337000000
O    -1.428000000     1.723000000     4.191000000
H    -1.975000000     2.225000000     3.586000000
H    -1.387000000     0.848000000     3.807000000
O    -1.045000000    -3.139000000     2.274000000
H    -1.487000000    -3.167000000     1.426000000
H    -0.127000000    -2.975000000     2.060000000
O     6.052000000     4.069000000    -0.525000000
H     5.983000000     3.125000000    -0.389000000
H     6.989000000     4.253000000    -0.455000000
O    -3.651000000     1.500000000     6.995000000
H    -4.250000000     1.259000000     6.288000000
H    -3.947000000     0.983000000     7.745000000
O    -4.149000000    -4.608000000     0.433000000
H    -3.559000000    -5.252000000     0.825000000
H    -4.308000000    -4.935000000    -0.452000000
O    -3.617000000     4.661000000    -2.629000000
H    -4.330000000     4.041000000    -2.479000000
H    -2.883000000     4.308000000    -2.126000000
O     6.681000000    -0.205000000    -4.291000000
H     6.711000000     0.513000000    -3.658000000
H     6.207000000    -0.903000000    -3.839000000
O     4.271000000     1.022000000     4.157000000
H     4.877000000     0.281000000     4.181000000
H     3.436000000     0.658000000     4.451000000
O     6.198000000    -0.357000000     1.952000000
H     6.071000000    -1.267000000     1.683000000
H     6.605000000    -0.417000000     2.817000000
O    -6.207000000    -0.849000000     5.764000000
H    -5.718000000    -0.349000000     5.111000000
H    -7.061000000    -0.418000000     5.806000000
O    -4.498000000     4.043000000     0.827000000
H    -4.638000000     4.987000000     0.892000000
H    -3.699000000     3.884000000     1.330000000
O     3.078000000    -4.527000000     0.501000000
H     2.822000000    -4.494000000    -0.420000000
H     2.408000000    -4.017000000     0.955000000
O     2.022000000    -0.550000000     4.592000000
H     1.179000000    -1.001000000     4.541000000
H     2.588000000    -1.155000000     5.070000000
O     5.121000000    -2.545000000     0.616000000
H     4.688000000    -1.929000000     0.025000000
H     4.658000000    -3.372000000     0.482000000
O     5.625000000    -1.727000000    -2.436000000
H     5.982000000    -1.845000000    -1.556000000
H     4.683000000    -1.626000000    -2.300000000
O     8.360000000    -2.878000000    -0.536000000
H     8.234000000    -3.714000000    -0.985000000
H     7.721000000    -2.891000000     0.177000000
O    -6.878000000     1.262000000    -1.133000000
H    -7.501000000     1.931000000    -0.849000000
H    -7.373000000     0.720000000    -1.748000000
O     6.294000000     1.646000000    -2.542000000
H     6.140000000     1.335000000    -1.650000000
H     5.436000000     1.943000000    -2.844000000
O     2.522000000     4.852000000     2.547000000
H     2.133000000     4.562000000     1.722000000
H     1.998000000     4.423000000     3.224000000
O     2.164000000    -4.107000000    -1.887000000
H     2.133000000    -3.310000000    -2.417000000
H     2.425000000    -4.793000000    -2.501000000
O    -5.108000000    -3.025000000     2.465000000
H    -4.931000000    -3.596000000     1.717000000
H    -4.651000000    -2.210000000     2.257000000
O    -5.396000000     1.156000000     1.186000000
H    -5.996000000     1.108000000     0.442000000
H    -5.160000000     2.082000000     1.243000000
O    -0.838000000    -1.935000000    -5.742000000
H    -0.980000000    -2.768000000    -6.192000000
H    -1.706000000    -1.682000000    -5.428000000
O    -1.275000000    -4.657000000    -1.025000000
H    -0.356000000    -4.894000000    -0.908000000
H    -1.727000000    -5.079000000    -0.294000000
O     3.457000000     0.011000000    -4.546000000
H     2.979000000    -0.440000000    -3.850000000
H     3.764000000     0.822000000    -4.139000000
O    -3.059000000    -1.214000000    -2.985000000
H    -2.980000000    -0.272000000    -2.835000000
H    -3.249000000    -1.292000000    -3.920000000
O     5.733000000    -4.409000000    -3.194000000
H     4.835000000    -4.421000000    -3.524000000
H     5.919000000    -3.483000000    -3.040000000
O    -0.267000000     0.820000000    -4.914000000
H     0.083000000     0.035000000    -5.335000000
H    -1.217000000     0.730000000    -4.993000000
O     1.705000000    -0.366000000    -6.805000000
H     1.737000000    -1.301000000    -7.010000000
H     2.262000000    -0.271000000    -6.033000000
O     3.752000000     2.284000000    -2.915000000
H     2.834000000     2.169000000    -2.670000000
H     3.910000000     3.224000000    -2.821000000
O    -2.900000000    -4.029000000    -3.166000000
H    -2.304000000    -4.376000000    -2.502000000
H    -2.866000000    -3.080000000    -3.046000000
O     5.752000000    -4.369000000     2.643000000
H     6.702000000    -4.274000000     2.704000000
H     5.506000000    -3.840000000     1.884000000
O    -5.053000000     0.006000000     3.683000000
H    -4.103000000     0.112000000     3.640000000
H    -5.360000000     0.240000000     2.806000000
O     1.210000000     4.460000000     0.253000000
H     0.397000000     4.937000000     0.082000000
H     1.341000000     3.923000000    -0.529000000
O     1.616000000    -2.582000000     1.979000000
H     1.234000000    -1.729000000     1.772000000
H     2.409000000    -2.375000000     2.474000000
O    -2.321000000    -1.265000000     3.913000000
H    -2.514000000    -1.548000000     4.807000000
H    -2.288000000    -2.076000000     3.407000000
O     4.082000000    -2.736000000    -5.436000000
H     3.184000000    -2.868000000    -5.131000000
H     4.222000000    -1.792000000    -5.364000000
O     0.139000000     0.939000000     6.432000000
H     0.665000000     0.410000000     5.833000000
H    -0.293000000     1.581000000     5.869000000
O    -3.874000000     1.448000000    -2.174000000
H    -3.923000000     1.885000000    -3.025000000
H    -4.720000000     1.627000000    -1.764000000
O    -6.127000000    -2.024000000    -1.575000000
H    -5.317000000    -1.962000000    -2.082000000
H    -6.553000000    -1.177000000    -1.701000000
O     5.512000000     3.285000000     3.080000000
H     5.102000000     2.420000000     3.078000000
H     5.479000000     3.568000000     2.166000000
O    -1.857000000     2.861000000    -1.194000000
H    -2.469000000     2.130000000    -1.288000000
H    -0.992000000     2.460000000    -1.277000000
