158
-3014.37728
C     1.101000000    -0.818000000    -0.593000000
H     1.956000000    -1.414000000    -0.901000000
C     0.742000000    -0.807000000     0.768000000
H     1.286000000    -1.409000000     1.490000000
C    -0.319000000    -0.001000000     1.213000000
H    -0.622000000     0.133000000     2.223000000
C    -0.973000000     0.759000000     0.293000000
H    -1.795000000     1.416000000     0.563000000
C    -0.659000000     0.736000000    -1.072000000
H    -1.157000000     1.482000000    -1.687000000
C     0.404000000     0.003000000    -1.517000000
C     0.806000000     0.072000000    -2.956000000
O     1.673000000    -0.674000000    -3.418000000
O     0.210000000     0.801000000    -3.680000000
O     0.264000000    -1.096000000     4.440000000
H     0.594000000    -1.411000000     5.282000000
H    -0.525000000    -0.602000000     4.663000000
O    -1.871000000    -0.883000000     6.602000000
H    -0.992000000    -1.243000000     6.715000000
H    -2.381000000    -1.267000000     7.316000000
O    -2.509000000     2.396000000     6.710000000
H    -2.671000000     2.373000000     5.767000000
H    -2.513000000     1.476000000     6.976000000
O     3.207000000    -1.988000000    -5.648000000
H     2.595000000    -2.717000000    -5.756000000
H     2.904000000    -1.536000000    -4.860000000
O     4.903000000    -3.582000000    -1.172000000
H     5.827000000    -3.574000000    -0.923000000
H     4.777000000    -4.431000000    -1.596000000
O     1.322000000     0.508000000    -6.191000000
H     1.339000000     0.957000000    -5.346000000
H     1.838000000    -0.286000000    -6.050000000
O     4.999000000    -1.882000000     4.231000000
H     4.752000000    -2.786000000     4.422000000
H     4.901000000    -1.802000000     3.282000000
O     4.784000000     1.774000000    -1.112000000
H     4.365000000     2.381000000    -1.723000000
H     4.090000000     1.534000000    -0.498000000
O     5.277000000     1.322000000     2.571000000
H     6.168000000     0.977000000     2.512000000
H     4.768000000     0.776000000     1.971000000
O    -3.581000000     0.517000000    -4.097000000
H    -3.020000000     1.092000000    -4.618000000
H    -3.760000000     1.015000000    -3.299000000
O     0.803000000     4.479000000    -1.173000000
H     0.299000000     5.109000000    -1.687000000
H     1.451000000     4.133000000    -1.787000000
O    -1.756000000    -3.073000000    -6.628000000
H    -2.232000000    -2.930000000    -7.447000000
H    -1.560000000    -2.192000000    -6.308000000
O    -2.680000000     4.370000000    -4.453000000
H    -1.847000000     4.061000000    -4.096000000
H    -2.593000000     4.255000000    -5.399000000
O    -0.216000000    -3.491000000     3.039000000
H    -0.070000000    -2.585000000     3.311000000
H     0.334000000    -3.601000000     2.264000000
O    -1.219000000    -0.719000000    -5.471000000
H    -1.749000000    -0.760000000    -4.675000000
H    -0.405000000    -0.296000000    -5.195000000
O     2.135000000     1.295000000     3.987000000
H     2.590000000     1.329000000     4.829000000
H     1.895000000     0.374000000     3.882000000
O     1.950000000     4.138000000     1.329000000
H     1.474000000     3.559000000     1.925000000
H     1.574000000     3.956000000     0.468000000
O     1.296000000    -4.006000000    -6.149000000
H     0.381000000    -4.037000000    -6.429000000
H     1.503000000    -4.909000000    -5.906000000
O     3.361000000     3.375000000    -2.978000000
H     3.603000000     3.106000000    -3.864000000
H     3.391000000     4.331000000    -3.002000000
O     4.009000000    -5.874000000    -2.203000000
H     3.231000000    -5.721000000    -1.667000000
H     4.130000000    -6.823000000    -2.186000000
O    -3.220000000    -3.986000000    -1.986000000
H    -2.627000000    -3.241000000    -2.080000000
H    -2.890000000    -4.460000000    -1.223000000
O     3.832000000     0.705000000    -3.757000000
H     3.022000000     0.232000000    -3.568000000
H     3.677000000     1.590000000    -3.425000000
O     0.010000000     3.475000000     6.741000000
H    -0.084000000     4.058000000     5.987000000
H    -0.879000000     3.165000000     6.916000000
O    -0.162000000     3.400000000    -4.186000000
H     0.572000000     3.686000000    -4.730000000
H    -0.033000000     2.457000000    -4.086000000
O     1.501000000    -5.018000000    -1.334000000
H     0.854000000    -5.706000000    -1.488000000
H     1.364000000    -4.395000000    -2.048000000
O     0.084000000     2.766000000     2.973000000
H     0.818000000     2.266000000     3.331000000
H    -0.526000000     2.100000000     2.655000000
O     1.895000000     4.335000000    -5.629000000
H     2.808000000     4.054000000    -5.691000000
H     1.527000000     4.145000000    -6.492000000
O    -3.122000000     3.611000000     3.875000000
H    -3.382000000     3.971000000     3.027000000
H    -2.210000000     3.882000000     3.981000000
O    -5.597000000     1.509000000     1.057000000
H    -5.117000000     1.643000000     0.240000000
H    -5.842000000     2.390000000     1.339000000
O    -2.884000000     3.850000000    -1.334000000
H    -2.902000000     4.772000000    -1.075000000
H    -1.984000000     3.572000000    -1.168000000
O    -2.882000000    -4.425000000     3.109000000
H    -1.971000000    -4.237000000     3.335000000
H    -2.830000000    -5.158000000     2.496000000
O     0.760000000    -1.425000000     7.025000000
H     1.114000000    -2.170000000     7.510000000
H     0.992000000    -0.662000000     7.554000000
O     1.760000000    -4.108000000     1.156000000
H     1.634000000    -4.586000000     0.336000000
H     2.446000000    -3.471000000     0.960000000
O    -3.539000000     0.754000000     4.354000000
H    -3.176000000    -0.069000000     4.027000000
H    -3.376000000     1.384000000     3.652000000
O     5.905000000    -0.822000000    -2.582000000
H     5.475000000    -1.564000000    -2.156000000
H     5.192000000    -0.340000000    -3.001000000
O     1.847000000    -5.100000000     4.814000000
H     2.644000000    -4.804000000     4.374000000
H     1.227000000    -4.380000000     4.696000000
O    -2.597000000    -1.510000000     3.178000000
H    -2.808000000    -2.057000000     3.935000000
H    -2.188000000    -2.111000000     2.555000000
O    -4.867000000     2.084000000    -1.620000000
H    -5.445000000     2.465000000    -2.281000000
H    -4.111000000     2.670000000    -1.597000000
O    -2.654000000     3.639000000    -7.099000000
H    -2.035000000     2.909000000    -7.069000000
H    -2.307000000     4.221000000    -7.774000000
O     1.219000000    -3.220000000    -3.173000000
H     1.456000000    -2.294000000    -3.120000000
H     1.083000000    -3.380000000    -4.107000000
O    -5.613000000     4.279000000     1.070000000
H    -6.345000000     4.871000000     0.898000000
H    -4.906000000     4.604000000     0.513000000
O    -6.224000000    -1.028000000     1.960000000
H    -6.593000000    -0.179000000     2.206000000
H    -5.318000000    -0.834000000     1.721000000
O     2.904000000     1.412000000     0.961000000
H     2.098000000     0.917000000     0.816000000
H     2.944000000     1.531000000     1.910000000
O     5.233000000    -3.134000000    -6.645000000
H     4.488000000    -2.657000000    -6.279000000
H     5.191000000    -3.997000000    -6.233000000
O     4.421000000    -1.328000000     1.253000000
H     4.208000000    -1.800000000     0.448000000
H     5.365000000    -1.448000000     1.358000000
O    -0.825000000     1.597000000    -7.837000000
H    -0.307000000     1.211000000    -7.130000000
H    -1.425000000     0.901000000    -8.103000000
O    -6.298000000    -0.209000000    -1.965000000
H    -5.735000000    -0.946000000    -1.731000000
H    -5.715000000     0.550000000    -1.959000000
O    -1.355000000    -2.326000000    -2.576000000
H    -1.216000000    -1.419000000    -2.306000000
H    -0.473000000    -2.681000000    -2.689000000
