158
-3028.92579
C     1.449000000    -0.149000000    -0.458000000
H     2.498000000    -0.231000000    -0.732000000
C     0.985000000    -0.285000000     0.875000000
H     1.580000000    -0.508000000     1.758000000
C    -0.344000000    -0.268000000     1.142000000
H    -0.659000000    -0.538000000     2.140000000
C    -1.278000000    -0.042000000     0.132000000
H    -2.347000000    -0.051000000     0.325000000
C    -0.828000000     0.273000000    -1.143000000
H    -1.575000000     0.559000000    -1.879000000
C     0.504000000     0.155000000    -1.484000000
C     0.970000000     0.535000000    -2.833000000
O     1.990000000     1.226000000    -2.971000000
O     0.264000000     0.269000000    -3.813000000
O     0.156000000    -1.355000000     5.705000000
H     1.041000000    -1.262000000     5.352000000
H     0.285000000    -1.479000000     6.645000000
O    -0.880000000    -6.763000000     1.495000000
H    -0.194000000    -7.380000000     1.239000000
H    -0.430000000    -5.921000000     1.566000000
O    -1.474000000     0.760000000     7.932000000
H    -0.874000000     0.099000000     7.586000000
H    -2.111000000     0.261000000     8.443000000
O    -2.650000000     5.972000000     2.162000000
H    -2.410000000     6.181000000     1.259000000
H    -2.205000000     5.144000000     2.342000000
O    -5.292000000     1.124000000     6.573000000
H    -4.468000000     0.988000000     6.104000000
H    -5.489000000     2.052000000     6.447000000
O    -2.193000000     3.199000000     6.914000000
H    -2.757000000     3.133000000     6.144000000
H    -2.065000000     2.293000000     7.196000000
O     3.850000000    -0.345000000    -4.311000000
H     3.217000000    -1.046000000    -4.465000000
H     3.352000000     0.330000000    -3.850000000
O     5.012000000    -1.499000000     1.827000000
H     5.886000000    -1.671000000     2.176000000
H     4.890000000    -2.165000000     1.149000000
O     6.067000000     1.200000000     3.865000000
H     5.119000000     1.074000000     3.846000000
H     6.249000000     1.507000000     4.754000000
O     1.461000000     3.503000000    -4.284000000
H     1.073000000     3.384000000    -5.151000000
H     1.791000000     2.635000000    -4.049000000
O     2.884000000    -1.611000000     4.268000000
H     2.899000000    -2.323000000     3.628000000
H     3.173000000    -0.841000000     3.777000000
O    -4.452000000    -1.203000000     2.370000000
H    -5.165000000    -1.609000000     2.863000000
H    -4.274000000    -1.816000000     1.657000000
O    -2.618000000     5.538000000    -0.853000000
H    -2.852000000     5.750000000    -1.757000000
H    -3.048000000     4.699000000    -0.685000000
O    -7.038000000     2.156000000    -1.160000000
H    -7.082000000     1.974000000    -0.221000000
H    -6.135000000     2.437000000    -1.308000000
O    -3.180000000     2.779000000    -4.158000000
H    -2.719000000     3.562000000    -3.857000000
H    -2.529000000     2.300000000    -4.670000000
O    -1.633000000    -2.931000000     4.107000000
H    -1.137000000    -2.383000000     4.716000000
H    -0.968000000    -3.310000000     3.532000000
O    -1.815000000    -1.128000000    -4.314000000
H    -2.018000000    -0.997000000    -5.240000000
H    -1.063000000    -0.559000000    -4.151000000
O     1.560000000     2.636000000     3.907000000
H     1.378000000     2.663000000     2.968000000
H     2.231000000     1.960000000     4.003000000
O    -0.257000000     5.330000000     0.636000000
H    -0.228000000     4.434000000     0.970000000
H    -1.004000000     5.338000000     0.037000000
O    -7.215000000    -1.675000000    -1.963000000
H    -6.452000000    -1.118000000    -1.809000000
H    -7.157000000    -1.910000000    -2.889000000
O    -1.907000000    -0.708000000    -7.340000000
H    -2.500000000    -0.185000000    -7.880000000
H    -1.271000000    -1.066000000    -7.960000000
O    -0.242000000    -3.634000000    -5.494000000
H     0.655000000    -3.452000000    -5.213000000
H    -0.692000000    -2.793000000    -5.416000000
O     3.565000000    -1.865000000     6.911000000
H     4.484000000    -2.131000000     6.936000000
H     3.357000000    -1.809000000     5.979000000
O     4.836000000    -3.780000000     0.409000000
H     4.333000000    -4.529000000     0.090000000
H     5.402000000    -3.542000000    -0.325000000
O    -4.335000000    -3.191000000     0.602000000
H    -3.867000000    -2.845000000    -0.157000000
H    -4.038000000    -4.098000000     0.675000000
O     4.385000000     2.247000000    -1.616000000
H     3.870000000     1.740000000    -2.243000000
H     4.017000000     3.129000000    -1.661000000
O     0.812000000     3.762000000     6.217000000
H    -0.118000000     3.539000000     6.247000000
H     1.120000000     3.394000000     5.389000000
O     2.595000000    -3.745000000     2.252000000
H     2.859000000    -4.454000000     2.838000000
H     3.359000000    -3.598000000     1.694000000
O    -1.440000000     4.425000000    -3.200000000
H    -1.537000000     5.368000000    -3.328000000
H    -0.513000000     4.254000000    -3.363000000
O    -0.817000000    -2.993000000    -0.475000000
H    -1.486000000    -2.956000000    -1.159000000
H    -0.570000000    -2.080000000    -0.332000000
O    -1.970000000     3.482000000     2.439000000
H    -1.410000000     2.718000000     2.575000000
H    -2.621000000     3.428000000     3.139000000
O    -3.589000000     2.930000000     0.303000000
H    -4.280000000     3.591000000     0.357000000
H    -3.063000000     3.068000000     1.090000000
O    -4.416000000     1.243000000    -6.503000000
H    -4.025000000     1.749000000    -5.791000000
H    -3.974000000     1.558000000    -7.292000000
O    -3.730000000    -4.637000000     3.981000000
H    -3.207000000    -3.836000000     4.022000000
H    -3.357000000    -5.201000000     4.659000000
O     0.052000000    -3.997000000     2.040000000
H    -0.229000000    -3.688000000     1.179000000
H     1.008000000    -3.975000000     2.003000000
O    -3.495000000     2.594000000     4.625000000
H    -3.474000000     1.638000000     4.578000000
H    -4.342000000     2.834000000     4.249000000
O     6.474000000     0.633000000    -1.318000000
H     5.676000000     1.152000000    -1.223000000
H     7.178000000     1.226000000    -1.055000000
O     4.222000000     3.884000000    -4.091000000
H     4.580000000     3.021000000    -4.300000000
H     3.388000000     3.918000000    -4.561000000
O     0.409000000    -5.576000000     4.630000000
H     0.778000000    -4.811000000     5.071000000
H     0.189000000    -5.264000000     3.752000000
O    -3.413000000    -0.235000000     4.882000000
H    -3.695000000    -0.401000000     3.982000000
H    -2.786000000    -0.934000000     5.069000000
O    -4.291000000     1.572000000    -2.015000000
H    -3.876000000     1.968000000    -2.782000000
H    -3.813000000     1.937000000    -1.270000000
O     2.350000000    -3.492000000    -4.917000000
H     2.462000000    -3.759000000    -4.005000000
H     3.150000000    -3.789000000    -5.353000000
O     1.822000000     2.649000000     1.120000000
H     1.520000000     2.273000000     0.293000000
H     2.426000000     3.344000000     0.861000000
O     5.638000000    -2.020000000    -5.416000000
H     5.075000000    -1.273000000    -5.211000000
H     5.351000000    -2.708000000    -4.816000000
O     3.628000000     0.730000000     2.658000000
H     4.103000000     0.052000000     2.177000000
H     2.974000000     1.051000000     2.037000000
O    -0.821000000     1.444000000    -5.889000000
H    -0.288000000     1.192000000    -5.134000000
H    -0.973000000     0.624000000    -6.358000000
O    -4.804000000    -0.728000000    -1.113000000
H    -5.019000000    -0.606000000    -0.188000000
H    -4.526000000     0.139000000    -1.410000000
O    -2.741000000    -2.637000000    -2.185000000
H    -2.254000000    -2.171000000    -2.864000000
H    -3.344000000    -1.984000000    -1.830000000
