158
-3057.63199
C     0.917000000    -0.715000000     0.904000000
H     1.637000000    -0.980000000     1.674000000
C    -0.167000000     0.074000000     1.270000000
H    -0.358000000     0.281000000     2.320000000
C    -0.967000000     0.718000000     0.313000000
H    -1.838000000     1.371000000     0.695000000
C    -0.698000000     0.565000000    -1.015000000
H    -1.358000000     1.002000000    -1.760000000
C     0.404000000    -0.305000000    -1.389000000
H     0.453000000    -0.644000000    -2.421000000
C     1.210000000    -0.872000000    -0.418000000
C     2.369000000    -1.777000000    -0.857000000
O     3.194000000    -2.155000000    -0.022000000
O     2.560000000    -2.024000000    -2.037000000
O    -5.230000000     5.157000000     0.485000000
H    -5.642000000     4.413000000     0.046000000
H    -5.823000000     5.369000000     1.206000000
O    -2.589000000     5.175000000     0.925000000
H    -3.498000000     4.905000000     0.797000000
H    -2.629000000     6.130000000     0.986000000
O    -0.456000000    -2.731000000     4.186000000
H    -0.839000000    -3.588000000     4.373000000
H     0.465000000    -2.915000000     4.003000000
O     0.628000000    -6.202000000    -1.902000000
H     1.109000000    -6.980000000    -2.186000000
H     1.310000000    -5.571000000    -1.671000000
O     1.158000000    -0.302000000    -4.760000000
H     1.176000000    -1.232000000    -4.533000000
H     1.444000000    -0.273000000    -5.673000000
O    -2.708000000     3.140000000    -1.658000000
H    -2.387000000     3.896000000    -1.167000000
H    -3.519000000     3.447000000    -2.065000000
O    -4.360000000     3.306000000     4.515000000
H    -4.409000000     2.624000000     5.185000000
H    -4.681000000     4.095000000     4.953000000
O    -0.137000000    -1.284000000     6.819000000
H     0.146000000    -0.386000000     6.648000000
H    -0.350000000    -1.637000000     5.955000000
O    -1.601000000    -0.602000000    -5.000000000
H    -0.675000000    -0.364000000    -5.054000000
H    -1.642000000    -1.247000000    -4.295000000
O     6.618000000    -4.123000000    -1.203000000
H     6.838000000    -5.027000000    -1.430000000
H     5.894000000    -3.899000000    -1.786000000
O     5.623000000    -1.167000000    -0.374000000
H     6.266000000    -1.771000000    -0.001000000
H     4.788000000    -1.629000000    -0.299000000
O     4.041000000     0.381000000     1.502000000
H     3.640000000     1.090000000     0.999000000
H     4.356000000    -0.234000000     0.840000000
O    -3.357000000     1.520000000    -5.374000000
H    -2.716000000     0.809000000    -5.353000000
H    -2.859000000     2.298000000    -5.125000000
O    -3.473000000    -2.064000000     4.196000000
H    -2.987000000    -1.623000000     3.499000000
H    -2.929000000    -2.816000000     4.428000000
O    -4.216000000     2.693000000     1.666000000
H    -4.017000000     2.707000000     2.602000000
H    -3.525000000     3.220000000     1.266000000
O    -1.137000000     2.848000000    -3.952000000
H    -0.483000000     2.166000000    -4.106000000
H    -1.548000000     2.602000000    -3.123000000
O    -6.680000000    -1.151000000    -0.675000000
H    -7.027000000    -1.590000000     0.102000000
H    -6.298000000    -0.339000000    -0.341000000
O     0.722000000    -2.900000000    -3.784000000
H    -0.153000000    -2.832000000    -3.403000000
H     1.306000000    -2.559000000    -3.107000000
O    -6.314000000     3.651000000    -1.760000000
H    -6.171000000     2.940000000    -2.385000000
H    -7.003000000     4.184000000    -2.158000000
O     5.155000000    -5.643000000     1.042000000
H     4.631000000    -6.175000000     0.443000000
H     5.690000000    -6.276000000     1.519000000
O     1.267000000     4.499000000    -1.455000000
H     2.082000000     4.321000000    -1.925000000
H     0.612000000     4.606000000    -2.145000000
O     2.233000000    -4.149000000     4.016000000
H     2.658000000    -4.175000000     4.874000000
H     2.945000000    -3.977000000     3.401000000
O     3.988000000    -1.145000000     3.543000000
H     4.310000000    -1.865000000     3.001000000
H     3.887000000    -0.413000000     2.934000000
O     3.842000000     1.601000000    -1.092000000
H     3.691000000     1.157000000    -1.927000000
H     2.996000000     1.990000000    -0.871000000
O    -5.757000000    -0.617000000    -3.219000000
H    -5.342000000    -1.432000000    -3.501000000
H    -5.763000000    -0.669000000    -2.264000000
O     4.816000000    -3.159000000    -2.945000000
H     3.958000000    -3.020000000    -2.545000000
H     4.623000000    -3.385000000    -3.855000000
O     4.635000000     2.182000000     3.843000000
H     3.729000000     2.081000000     4.133000000
H     4.680000000     1.693000000     3.021000000
O     3.280000000     0.179000000    -3.265000000
H     2.565000000     0.190000000    -3.901000000
H     3.191000000    -0.662000000    -2.817000000
O    -0.898000000     3.763000000     2.683000000
H    -1.305000000     4.336000000     2.033000000
H    -1.070000000     4.192000000     3.521000000
O     6.744000000    -1.446000000    -3.068000000
H     6.299000000    -0.966000000    -2.370000000
H     6.164000000    -2.182000000    -3.260000000
O     0.299000000     1.203000000     6.125000000
H    -0.154000000     1.423000000     5.311000000
H     0.784000000     1.997000000     6.352000000
O    -1.704000000    -2.882000000     0.702000000
H    -1.138000000    -2.120000000     0.574000000
H    -1.160000000    -3.506000000     1.183000000
O    -0.023000000     6.507000000    -0.093000000
H    -0.723000000     6.565000000    -0.744000000
H     0.710000000     6.113000000    -0.565000000
O     0.342000000    -4.393000000     1.658000000
H     1.060000000    -4.220000000     1.049000000
H     0.771000000    -4.525000000     2.503000000
O    -5.132000000    -0.323000000     5.548000000
H    -4.549000000    -0.106000000     6.277000000
H    -4.608000000    -0.892000000     4.985000000
O     4.025000000    -3.454000000     2.019000000
H     3.595000000    -2.990000000     1.301000000
H     4.263000000    -4.304000000     1.647000000
O    -1.744000000     1.363000000     4.100000000
H    -1.364000000     2.059000000     3.564000000
H    -2.428000000     0.982000000     3.549000000
O     5.540000000     0.893000000    -4.668000000
H     6.033000000     0.107000000    -4.433000000
H     4.693000000     0.782000000    -4.236000000
O    -3.902000000     0.368000000     2.843000000
H    -4.301000000     1.199000000     2.587000000
H    -3.594000000    -0.014000000     2.021000000
O    -5.400000000     1.927000000    -3.796000000
H    -5.537000000     0.982000000    -3.856000000
H    -4.636000000     2.094000000    -4.349000000
O    -1.983000000    -2.444000000    -2.660000000
H    -2.820000000    -2.811000000    -2.946000000
H    -1.997000000    -2.530000000    -1.707000000
O     2.398000000    -4.608000000    -0.517000000
H     2.863000000    -3.787000000    -0.359000000
H     3.088000000    -5.270000000    -0.565000000
O     2.005000000     3.081000000     2.908000000
H     1.905000000     2.668000000     2.050000000
H     1.112000000     3.293000000     3.178000000
O    -4.890000000     0.819000000    -0.237000000
H    -4.503000000     1.263000000     0.517000000
H    -4.740000000     1.416000000    -0.970000000
O     1.598000000     2.440000000     0.272000000
H     0.949000000     1.751000000     0.133000000
H     1.219000000     3.214000000    -0.145000000
O     0.593000000     5.114000000    -4.341000000
H     0.472000000     5.770000000    -5.027000000
H    -0.296000000     4.856000000    -4.098000000
O     6.888000000    -3.034000000     1.246000000
H     6.759000000    -3.593000000     0.479000000
H     6.214000000    -3.317000000     1.864000000
O     0.072000000    -5.299000000    -4.600000000
H     0.438000000    -4.416000000    -4.565000000
H    -0.341000000    -5.421000000    -3.745000000
