158
-3014.26842
C    -0.992000000     0.949000000     0.463000000
H    -1.623000000     1.785000000     0.754000000
C     0.034000000     1.258000000    -0.419000000
H     0.072000000     2.234000000    -0.897000000
C     0.997000000     0.252000000    -0.722000000
H     1.796000000     0.412000000    -1.400000000
C     0.886000000    -1.040000000    -0.151000000
H     1.586000000    -1.845000000    -0.357000000
C    -0.189000000    -1.296000000     0.729000000
H    -0.336000000    -2.266000000     1.197000000
C    -1.158000000    -0.313000000     1.055000000
C    -2.426000000    -0.601000000     1.810000000
O    -3.306000000     0.179000000     1.758000000
O    -2.520000000    -1.613000000     2.559000000
O    -3.030000000     3.852000000    -3.792000000
H    -3.164000000     3.783000000    -2.847000000
H    -2.697000000     2.993000000    -4.051000000
O     1.444000000    -4.342000000    -4.110000000
H     0.771000000    -4.431000000    -4.785000000
H     2.217000000    -4.765000000    -4.485000000
O    -4.691000000    -3.103000000     1.986000000
H    -3.820000000    -2.708000000     1.972000000
H    -5.268000000    -2.426000000     1.632000000
O    -0.954000000    -5.654000000     4.750000000
H    -1.374000000    -4.794000000     4.754000000
H    -1.460000000    -6.165000000     4.118000000
O    -4.767000000    -2.966000000    -1.074000000
H    -3.983000000    -2.423000000    -0.987000000
H    -4.545000000    -3.781000000    -0.624000000
O     2.533000000     3.684000000    -2.555000000
H     3.029000000     3.251000000    -3.249000000
H     1.616000000     3.546000000    -2.794000000
O    -1.262000000    -5.027000000    -0.712000000
H    -0.782000000    -5.573000000    -1.334000000
H    -2.139000000    -5.409000000    -0.684000000
O    -2.875000000    -0.548000000    -1.552000000
H    -1.985000000    -0.882000000    -1.439000000
H    -3.034000000    -0.021000000    -0.769000000
O     2.201000000     5.742000000    -4.808000000
H     2.100000000     4.944000000    -4.288000000
H     3.147000000     5.845000000    -4.908000000
O     3.129000000    -2.965000000    -1.753000000
H     2.504000000    -3.687000000    -1.818000000
H     2.664000000    -2.212000000    -2.116000000
O     0.099000000     3.057000000    -3.648000000
H    -0.010000000     3.596000000    -4.431000000
H    -0.362000000     2.243000000    -3.850000000
O     5.228000000    -4.114000000     1.435000000
H     5.735000000    -4.188000000     2.244000000
H     4.318000000    -4.215000000     1.713000000
O     2.417000000    -0.441000000    -6.793000000
H     2.315000000     0.510000000    -6.761000000
H     1.603000000    -0.782000000    -6.423000000
O    -1.381000000    -2.847000000    -2.409000000
H    -0.486000000    -2.508000000    -2.424000000
H    -1.308000000    -3.696000000    -1.973000000
O     5.640000000    -2.409000000    -0.689000000
H     5.537000000    -2.901000000     0.126000000
H     4.795000000    -2.497000000    -1.130000000
O    -5.297000000     1.617000000     2.943000000
H    -5.929000000     0.977000000     3.271000000
H    -4.487000000     1.120000000     2.833000000
O     4.975000000     0.914000000     1.473000000
H     4.506000000     0.963000000     2.306000000
H     4.410000000     0.384000000     0.911000000
O     0.466000000     3.152000000     3.112000000
H     0.472000000     3.076000000     4.066000000
H     0.703000000     2.279000000     2.800000000
O    -8.259000000     1.297000000     1.853000000
H    -7.414000000     1.567000000     1.492000000
H    -8.054000000     0.988000000     2.736000000
O    -4.368000000    -5.274000000     0.277000000
H    -4.036000000    -4.646000000     0.918000000
H    -4.885000000    -5.893000000     0.793000000
O    -4.133000000     1.753000000    -0.302000000
H    -3.851000000     2.659000000    -0.428000000
H    -3.597000000     1.434000000     0.424000000
O    -6.450000000     4.144000000     2.707000000
H    -6.026000000     3.286000000     2.715000000
H    -6.268000000     4.509000000     3.573000000
O    -5.734000000    -4.967000000     3.753000000
H    -5.218000000    -4.335000000     3.253000000
H    -6.031000000    -5.602000000     3.102000000
O     1.969000000    -1.246000000    -3.966000000
H     1.308000000    -0.591000000    -4.191000000
H     1.704000000    -2.030000000    -4.447000000
O    -2.175000000     0.881000000    -3.847000000
H    -2.370000000     0.518000000    -2.983000000
H    -2.337000000     0.157000000    -4.452000000
O    -1.630000000     4.784000000     2.330000000
H    -1.310000000     5.553000000     1.859000000
H    -0.847000000     4.253000000     2.480000000
O    -3.399000000     2.550000000     5.924000000
H    -3.150000000     3.152000000     5.222000000
H    -3.268000000     1.679000000     5.550000000
O     3.415000000     2.280000000    -4.691000000
H     3.880000000     1.449000000    -4.786000000
H     2.830000000     2.315000000    -5.449000000
O    -5.710000000    -0.348000000     0.670000000
H    -5.022000000     0.283000000     0.878000000
H    -6.207000000     0.063000000    -0.037000000
O     1.576000000     0.701000000     2.493000000
H     1.710000000    -0.019000000     3.109000000
H     1.219000000     0.282000000     1.709000000
O     1.728000000     5.302000000     2.121000000
H     1.402000000     5.298000000     1.221000000
H     1.320000000     4.537000000     2.527000000
O    -2.905000000     4.428000000    -0.974000000
H    -2.031000000     4.805000000    -0.870000000
H    -3.470000000     4.978000000    -0.431000000
O     2.340000000    -4.084000000     2.190000000
H     1.474000000    -4.375000000     1.903000000
H     2.208000000    -3.177000000     2.466000000
O     0.959000000     5.002000000    -0.447000000
H     0.821000000     4.254000000    -1.028000000
H     1.888000000     5.210000000    -0.542000000
O     1.473000000    -1.730000000     3.502000000
H     0.664000000    -2.209000000     3.682000000
H     1.793000000    -1.469000000     4.365000000
O    -4.378000000     5.385000000     1.429000000
H    -4.913000000     4.974000000     2.108000000
H    -3.480000000     5.309000000     1.752000000
O    -2.779000000     0.391000000     4.631000000
H    -2.554000000    -0.365000000     5.173000000
H    -2.725000000     0.066000000     3.732000000
O     4.618000000     5.250000000    -1.455000000
H     3.839000000     4.734000000    -1.663000000
H     5.260000000     4.991000000    -2.116000000
O     6.585000000     2.764000000     0.187000000
H     6.124000000     2.015000000     0.565000000
H     6.447000000     3.472000000     0.816000000
O     6.633000000    -2.189000000    -4.628000000
H     6.090000000    -1.422000000    -4.443000000
H     7.512000000    -1.934000000    -4.345000000
O     0.480000000    -7.590000000     1.189000000
H     1.184000000    -7.516000000     0.545000000
H     0.470000000    -6.741000000     1.632000000
O    -0.046000000    -4.844000000     1.604000000
H    -0.424000000    -4.733000000     0.732000000
H    -0.684000000    -5.379000000     2.077000000
O    -1.421000000    -1.454000000     6.626000000
H    -1.709000000    -0.756000000     7.214000000
H    -1.492000000    -2.252000000     7.149000000
O     6.755000000     1.074000000    -3.796000000
H     6.919000000     0.500000000    -3.048000000
H     5.824000000     0.959000000    -3.986000000
O     0.090000000    -1.439000000    -5.987000000
H    -0.546000000    -0.729000000    -6.069000000
H    -0.442000000    -2.228000000    -5.884000000
O     4.485000000    -0.119000000    -4.796000000
H     4.231000000    -0.367000000    -5.685000000
H     3.785000000    -0.465000000    -4.242000000
O    -1.104000000    -2.939000000     4.346000000
H    -1.675000000    -2.556000000     3.680000000
H    -1.147000000    -2.326000000     5.080000000
O    -7.865000000    -2.140000000     1.313000000
H    -7.255000000    -1.513000000     0.925000000
H    -8.168000000    -1.714000000     2.115000000
