158
-2999.28243
C     0.965000000     0.972000000    -0.672000000
H     1.757000000     1.537000000    -1.157000000
C     1.189000000     0.280000000     0.542000000
H     2.194000000     0.374000000     0.946000000
C     0.192000000    -0.537000000     1.140000000
H     0.332000000    -1.101000000     2.026000000
C    -1.061000000    -0.556000000     0.468000000
H    -1.910000000    -1.061000000     0.923000000
C    -1.286000000     0.102000000    -0.719000000
H    -2.295000000     0.069000000    -1.121000000
C    -0.233000000     0.821000000    -1.340000000
C    -0.295000000     1.216000000    -2.779000000
O     0.665000000     1.591000000    -3.433000000
O    -1.353000000     1.251000000    -3.277000000
O    -3.239000000    -2.218000000     3.381000000
H    -4.066000000    -2.616000000     3.109000000
H    -3.437000000    -1.284000000     3.458000000
O    -4.235000000     4.360000000    -1.549000000
H    -3.543000000     4.145000000    -0.923000000
H    -4.500000000     3.516000000    -1.912000000
O     1.017000000    -3.772000000     3.600000000
H     1.270000000    -3.511000000     4.486000000
H     1.848000000    -3.921000000     3.148000000
O     6.208000000     2.071000000    -4.602000000
H     5.439000000     2.352000000    -4.106000000
H     6.013000000     2.318000000    -5.506000000
O     1.997000000    -1.512000000    -6.002000000
H     2.261000000    -1.385000000    -5.091000000
H     1.293000000    -0.877000000    -6.138000000
O     2.141000000     2.043000000    -7.829000000
H     1.414000000     1.660000000    -7.337000000
H     2.594000000     2.598000000    -7.195000000
O     2.461000000    -0.309000000    -3.197000000
H     2.111000000     0.551000000    -3.428000000
H     1.702000000    -0.800000000    -2.882000000
O     1.409000000    -4.310000000    -0.292000000
H     2.136000000    -4.113000000    -0.883000000
H     0.644000000    -3.923000000    -0.718000000
O     5.980000000     2.227000000     1.477000000
H     5.639000000     1.352000000     1.660000000
H     5.480000000     2.805000000     2.054000000
O     1.300000000     3.901000000    -4.335000000
H     0.961000000     3.936000000    -5.229000000
H     0.917000000     3.106000000    -3.964000000
O     0.618000000     1.750000000     7.282000000
H     0.088000000     1.561000000     6.507000000
H     0.985000000     2.618000000     7.115000000
O     5.215000000     3.841000000    -1.347000000
H     4.748000000     3.977000000    -2.171000000
H     5.318000000     2.892000000    -1.283000000
O     4.969000000    -0.150000000     1.790000000
H     4.965000000    -1.077000000     1.552000000
H     4.605000000    -0.128000000     2.675000000
O     1.806000000     6.376000000    -3.531000000
H     1.523000000     5.482000000    -3.725000000
H     2.099000000     6.722000000    -4.374000000
O    -1.863000000     3.785000000    -4.465000000
H    -1.554000000     2.954000000    -4.104000000
H    -1.448000000     3.841000000    -5.325000000
O     0.341000000     0.857000000    -6.152000000
H    -0.609000000     0.815000000    -6.255000000
H     0.473000000     1.054000000    -5.225000000
O    -3.107000000    -2.483000000    -2.384000000
H    -3.803000000    -3.130000000    -2.498000000
H    -2.787000000    -2.630000000    -1.494000000
O     1.563000000    -7.047000000     0.291000000
H     0.645000000    -7.302000000     0.386000000
H     1.530000000    -6.138000000    -0.006000000
O    -0.971000000     4.600000000    -1.603000000
H    -0.787000000     4.048000000    -2.363000000
H    -1.360000000     4.004000000    -0.962000000
O    -1.234000000    -3.781000000     2.082000000
H    -1.935000000    -3.317000000     2.539000000
H    -0.443000000    -3.572000000     2.579000000
O     3.328000000     4.942000000     2.894000000
H     2.745000000     4.334000000     3.348000000
H     3.373000000     5.705000000     3.469000000
O    -5.530000000    -3.462000000     2.768000000
H    -6.090000000    -3.877000000     3.424000000
H    -5.330000000    -4.162000000     2.146000000
O    -1.456000000     1.321000000     5.435000000
H    -2.057000000     0.676000000     5.062000000
H    -2.008000000     1.866000000     5.996000000
O     3.910000000     3.437000000    -3.727000000
H     2.978000000     3.637000000    -3.634000000
H     4.127000000     3.715000000    -4.617000000
O    -6.951000000    -1.798000000    -0.535000000
H    -6.423000000    -1.063000000    -0.847000000
H    -7.395000000    -1.460000000     0.243000000
O     6.044000000     1.211000000    -1.024000000
H     5.964000000     1.280000000    -0.073000000
H     6.984000000     1.269000000    -1.191000000
O    -0.505000000     3.958000000    -6.862000000
H    -0.640000000     3.551000000    -7.718000000
H    -0.117000000     4.810000000    -7.061000000
O    -1.446000000    -3.686000000    -0.529000000
H    -1.351000000    -3.481000000     0.401000000
H    -1.982000000    -4.478000000    -0.546000000
O    -1.623000000    -6.311000000     1.162000000
H    -1.623000000    -6.535000000     2.093000000
H    -1.384000000    -5.385000000     1.139000000
O    -2.451000000     6.401000000    -2.849000000
H    -2.629000000     6.020000000    -3.709000000
H    -1.893000000     5.758000000    -2.412000000
O     0.978000000     2.467000000     2.555000000
H     0.033000000     2.410000000     2.696000000
H     1.158000000     1.819000000     1.874000000
O    -4.675000000     1.582000000    -3.149000000
H    -5.068000000     1.295000000    -3.973000000
H    -3.800000000     1.194000000    -3.153000000
O    -1.475000000    -1.963000000     5.738000000
H    -2.143000000    -1.336000000     6.016000000
H    -1.922000000    -2.525000000     5.105000000
O    -0.365000000    -6.249000000     3.813000000
H     0.405000000    -6.723000000     4.127000000
H    -0.040000000    -5.374000000     3.603000000
O     4.963000000    -0.682000000    -2.953000000
H     4.046000000    -0.620000000    -3.221000000
H     5.071000000     0.014000000    -2.305000000
O     2.814000000    -5.409000000     1.985000000
H     2.902000000    -4.898000000     1.180000000
H     2.188000000    -6.098000000     1.763000000
O    -4.493000000     4.676000000    -5.435000000
H    -4.260000000     4.473000000    -6.342000000
H    -3.782000000     4.300000000    -4.916000000
O     0.788000000    -2.029000000    -2.089000000
H     0.308000000    -1.577000000    -1.394000000
H     0.359000000    -2.882000000    -2.160000000
O     0.843000000    -2.969000000     6.518000000
H     0.131000000    -2.357000000     6.330000000
H     1.529000000    -2.426000000     6.907000000
O     4.139000000     0.033000000     4.429000000
H     4.811000000     0.236000000     5.079000000
H     3.530000000     0.769000000     4.476000000
O    -2.763000000     3.396000000     0.607000000
H    -1.910000000     3.476000000     1.034000000
H    -3.372000000     3.208000000     1.321000000
O     2.913000000     2.468000000     4.468000000
H     2.567000000     2.922000000     5.236000000
H     2.172000000     2.418000000     3.865000000
O    -1.646000000     2.782000000     3.260000000
H    -1.357000000     2.295000000     4.032000000
H    -2.540000000     3.053000000     3.469000000
O     5.059000000    -2.898000000     1.624000000
H     5.715000000    -3.523000000     1.932000000
H     4.973000000    -3.084000000     0.689000000
O    -3.131000000    -0.501000000    -4.383000000
H    -2.350000000    -0.114000000    -3.987000000
H    -3.290000000    -1.294000000    -3.872000000
O    -3.131000000    -5.749000000     4.155000000
H    -2.193000000    -5.910000000     4.250000000
H    -3.290000000    -5.808000000     3.212000000
O    -4.198000000     0.263000000     4.000000000
H    -4.611000000     0.543000000     4.817000000
H    -4.486000000     0.907000000     3.354000000
O     4.432000000    -2.699000000     4.229000000
H     4.425000000    -2.694000000     3.272000000
H     4.373000000    -1.776000000     4.474000000
