158
-3010.40798
C    -0.526000000     1.074000000     0.874000000
H    -0.967000000     1.862000000     1.480000000
C     0.060000000     1.265000000    -0.392000000
H     0.040000000     2.274000000    -0.795000000
C     0.488000000     0.215000000    -1.130000000
H     0.901000000     0.356000000    -2.121000000
C     0.362000000    -1.054000000    -0.576000000
H     0.692000000    -1.900000000    -1.172000000
C    -0.187000000    -1.204000000     0.674000000
H    -0.087000000    -2.157000000     1.188000000
C    -0.562000000    -0.197000000     1.514000000
C    -0.964000000    -0.487000000     2.881000000
O    -0.861000000     0.354000000     3.692000000
O    -1.526000000    -1.555000000     3.099000000
O    -4.049000000     1.584000000    -0.855000000
H    -4.376000000     2.078000000    -0.103000000
H    -3.312000000     2.101000000    -1.180000000
O    -2.190000000     0.589000000     6.355000000
H    -2.093000000    -0.320000000     6.070000000
H    -2.024000000     1.105000000     5.566000000
O     2.965000000     1.632000000     5.366000000
H     2.812000000     1.505000000     6.303000000
H     3.874000000     1.927000000     5.310000000
O     2.783000000    -2.462000000     1.017000000
H     2.224000000    -1.686000000     1.069000000
H     3.544000000    -2.245000000     1.557000000
O     2.388000000     3.109000000     2.874000000
H     1.550000000     3.480000000     3.150000000
H     2.701000000     2.627000000     3.640000000
O     2.286000000     4.731000000    -2.653000000
H     2.184000000     4.280000000    -1.815000000
H     2.226000000     4.035000000    -3.308000000
O    -2.186000000    -4.831000000     3.236000000
H    -1.577000000    -4.111000000     3.071000000
H    -1.705000000    -5.616000000     2.972000000
O    -1.294000000    -2.298000000    -4.985000000
H    -0.530000000    -1.967000000    -5.457000000
H    -1.238000000    -3.250000000    -5.078000000
O     4.643000000    -0.587000000    -1.012000000
H     5.475000000    -0.921000000    -0.677000000
H     4.251000000    -0.131000000    -0.268000000
O    -4.724000000     2.332000000     1.962000000
H    -3.956000000     2.543000000     2.493000000
H    -5.274000000     3.113000000     2.015000000
O    -6.100000000    -0.048000000     2.437000000
H    -5.443000000    -0.679000000     2.142000000
H    -5.689000000     0.806000000     2.302000000
O     3.366000000    -1.822000000    -3.672000000
H     2.799000000    -2.568000000    -3.867000000
H     3.093000000    -1.536000000    -2.800000000
O    -2.270000000     0.161000000    -3.007000000
H    -2.580000000    -0.644000000    -3.423000000
H    -2.715000000     0.179000000    -2.160000000
O     0.289000000     4.732000000     3.894000000
H     0.195000000     5.448000000     3.265000000
H    -0.035000000     5.094000000     4.719000000
O    -1.457000000     2.969000000     8.182000000
H    -1.090000000     2.302000000     7.602000000
H    -2.230000000     2.554000000     8.564000000
O    -1.172000000    -4.699000000    -1.828000000
H    -1.700000000    -4.167000000    -2.423000000
H    -1.794000000    -5.313000000    -1.439000000
O     0.597000000     0.380000000     7.665000000
H     0.404000000     0.841000000     6.849000000
H    -0.174000000    -0.167000000     7.819000000
O     5.050000000     1.255000000    -2.954000000
H     4.286000000     1.521000000    -3.466000000
H     4.717000000     0.581000000    -2.361000000
O    -2.359000000     4.149000000     0.954000000
H    -2.621000000     5.069000000     0.916000000
H    -2.298000000     3.879000000     0.038000000
O     2.661000000     0.823000000     1.022000000
H     2.558000000     1.490000000     1.701000000
H     2.296000000     1.225000000     0.234000000
O     1.054000000    -4.608000000     1.185000000
H     0.659000000    -4.437000000     0.330000000
H     1.667000000    -3.885000000     1.315000000
O    -5.077000000    -2.605000000    -0.869000000
H    -4.592000000    -2.359000000    -0.081000000
H    -4.400000000    -2.781000000    -1.522000000
O     2.978000000     2.258000000    -4.186000000
H     3.103000000     2.593000000    -5.074000000
H     2.100000000     1.877000000    -4.196000000
O     4.100000000    -4.147000000    -1.058000000
H     3.312000000    -4.486000000    -1.482000000
H     3.788000000    -3.424000000    -0.515000000
O    -3.506000000    -1.576000000     4.989000000
H    -3.509000000    -2.533000000     4.990000000
H    -2.708000000    -1.339000000     4.517000000
O     2.391000000    -6.935000000     0.859000000
H     1.819000000    -6.216000000     1.128000000
H     3.277000000    -6.592000000     0.972000000
O    -0.595000000     2.283000000    -7.129000000
H    -0.042000000     1.705000000    -7.655000000
H    -0.341000000     2.099000000    -6.224000000
O    -3.970000000    -4.157000000     5.186000000
H    -3.413000000    -4.515000000     4.494000000
H    -4.406000000    -4.922000000     5.563000000
O     1.637000000     0.098000000    -7.769000000
H     2.366000000     0.004000000    -7.157000000
H     1.380000000    -0.801000000    -7.976000000
O     3.597000000    -2.781000000     4.271000000
H     3.692000000    -3.237000000     5.107000000
H     2.822000000    -2.231000000     4.384000000
O     3.771000000    -0.923000000    -6.246000000
H     3.939000000    -1.149000000    -5.331000000
H     3.228000000    -1.639000000    -6.574000000
O     1.460000000    -0.750000000     4.685000000
H     2.042000000    -0.021000000     4.899000000
H     0.609000000    -0.339000000     4.528000000
O    -2.567000000     3.595000000    -1.762000000
H    -2.157000000     3.412000000    -2.608000000
H    -3.294000000     4.182000000    -1.970000000
O    -2.592000000     2.840000000     3.393000000
H    -2.340000000     3.323000000     2.606000000
H    -1.946000000     2.137000000     3.460000000
O     0.033000000     2.184000000     5.312000000
H    -0.046000000     1.623000000     4.540000000
H    -0.019000000     3.075000000     4.967000000
O     0.087000000     1.505000000    -4.062000000
H    -0.413000000     0.770000000    -3.707000000
H    -0.537000000     2.231000000    -4.083000000
O    -1.476000000     3.844000000    -4.238000000
H    -1.714000000     3.849000000    -5.165000000
H    -1.339000000     4.766000000    -4.021000000
O     2.329000000     3.467000000    -6.675000000
H     2.689000000     3.397000000    -7.559000000
H     2.036000000     4.375000000    -6.607000000
O    -3.977000000    -1.700000000     1.627000000
H    -3.199000000    -1.234000000     1.321000000
H    -3.659000000    -2.252000000     2.342000000
O    -4.702000000    -5.387000000     2.094000000
H    -3.822000000    -5.071000000     2.297000000
H    -4.773000000    -6.217000000     2.566000000
O     5.741000000    -3.757000000    -4.028000000
H     5.279000000    -2.997000000    -3.673000000
H     5.422000000    -4.495000000    -3.509000000
O     2.646000000     3.688000000     0.079000000
H     2.596000000     3.308000000     0.956000000
H     2.796000000     4.621000000     0.230000000
O     0.714000000    -3.378000000     5.425000000
H     1.234000000    -2.627000000     5.712000000
H     0.247000000    -3.063000000     4.651000000
O    -3.371000000    -2.647000000    -3.141000000
H    -2.572000000    -2.627000000    -3.668000000
H    -4.001000000    -3.128000000    -3.678000000
O     1.642000000    -4.554000000    -2.190000000
H     0.720000000    -4.590000000    -1.933000000
H     1.658000000    -4.921000000    -3.074000000
O    -2.199000000    -4.128000000     7.256000000
H    -2.924000000    -3.982000000     6.649000000
H    -2.048000000    -5.073000000     7.226000000
O     0.519000000    -5.689000000     3.915000000
H     0.913000000    -5.476000000     3.069000000
H     0.605000000    -4.885000000     4.428000000
O    -4.974000000    -1.663000000     7.342000000
H    -4.509000000    -1.505000000     6.520000000
H    -5.724000000    -2.202000000     7.094000000
