158
-3064.82352
C    -1.141000000     0.897000000     0.218000000
H    -1.999000000     1.564000000     0.202000000
C    -0.016000000     1.166000000    -0.555000000
H    -0.001000000     2.149000000    -1.018000000
C     0.983000000     0.213000000    -0.691000000
H     1.847000000     0.327000000    -1.356000000
C     0.917000000    -0.945000000     0.060000000
H     1.681000000    -1.711000000    -0.043000000
C    -0.183000000    -1.147000000     0.880000000
H    -0.170000000    -2.082000000     1.434000000
C    -1.283000000    -0.332000000     0.862000000
C    -2.520000000    -0.628000000     1.674000000
O    -3.360000000     0.267000000     1.801000000
O    -2.771000000    -1.743000000     2.068000000
O    -3.591000000     3.386000000    -4.481000000
H    -3.835000000     3.576000000    -3.575000000
H    -2.911000000     2.716000000    -4.410000000
O     1.380000000    -4.850000000    -4.020000000
H     2.050000000    -4.170000000    -4.095000000
H     1.171000000    -4.877000000    -3.086000000
O    -4.655000000    -3.881000000     2.318000000
H    -3.871000000    -3.331000000     2.319000000
H    -4.512000000    -4.499000000     1.602000000
O     0.808000000     1.640000000     2.523000000
H     1.449000000     1.217000000     1.952000000
H     1.284000000     1.804000000     3.337000000
O    -4.753000000     1.574000000     5.601000000
H    -4.318000000     2.077000000     4.913000000
H    -4.695000000     0.665000000     5.307000000
O     0.158000000    -5.166000000     4.105000000
H    -0.244000000    -4.312000000     4.263000000
H     0.885000000    -4.982000000     3.511000000
O    -2.221000000    -4.176000000    -2.253000000
H    -2.822000000    -4.322000000    -2.983000000
H    -1.724000000    -3.397000000    -2.505000000
O     4.351000000    -0.304000000    -1.248000000
H     4.134000000    -1.213000000    -1.454000000
H     4.161000000     0.176000000    -2.055000000
O     3.162000000    -2.687000000    -4.711000000
H     3.887000000    -2.965000000    -5.270000000
H     2.689000000    -2.040000000    -5.235000000
O     0.885000000     3.469000000    -4.779000000
H     1.576000000     2.835000000    -4.589000000
H     1.333000000     4.183000000    -5.233000000
O     7.115000000     0.448000000    -0.956000000
H     6.172000000     0.353000000    -1.090000000
H     7.194000000     0.909000000    -0.121000000
O    -0.835000000    -1.795000000    -2.140000000
H    -0.235000000    -1.218000000    -1.668000000
H    -1.707000000    -1.475000000    -1.907000000
O    -6.336000000     0.564000000    -2.648000000
H    -5.801000000     0.756000000    -1.878000000
H    -6.932000000    -0.127000000    -2.358000000
O     5.228000000    -3.707000000    -2.805000000
H     4.929000000    -4.494000000    -2.348000000
H     4.529000000    -3.514000000    -3.430000000
O    -2.833000000     2.354000000     3.203000000
H    -1.885000000     2.393000000     3.075000000
H    -3.121000000     1.637000000     2.639000000
O     0.786000000    -3.846000000    -1.637000000
H     0.122000000    -4.241000000    -1.072000000
H     0.304000000    -3.212000000    -2.167000000
O     4.836000000     3.949000000    -0.522000000
H     4.412000000     3.287000000     0.025000000
H     4.120000000     4.350000000    -1.013000000
O    -0.215000000    -1.040000000    -4.793000000
H    -1.170000000    -0.967000000    -4.790000000
H    -0.028000000    -1.752000000    -4.182000000
O    -6.600000000     2.051000000     3.466000000
H    -6.223000000     1.755000000     4.295000000
H    -5.988000000     2.714000000     3.148000000
O     2.747000000     4.412000000     1.756000000
H     3.133000000     4.020000000     2.540000000
H     2.345000000     3.677000000     1.294000000
O    -7.262000000     1.170000000     0.784000000
H    -6.886000000     1.073000000     1.659000000
H    -8.208000000     1.184000000     0.931000000
O     3.117000000    -4.495000000    -0.182000000
H     3.073000000    -5.360000000    -0.589000000
H     2.389000000    -4.010000000    -0.572000000
O    -3.548000000    -5.533000000     4.255000000
H    -2.859000000    -5.910000000     3.709000000
H    -4.222000000    -5.257000000     3.634000000
O    -4.936000000     1.306000000    -0.291000000
H    -5.867000000     1.236000000    -0.078000000
H    -4.487000000     0.983000000     0.490000000
O    -4.715000000     4.296000000     3.000000000
H    -4.521000000     5.089000000     3.501000000
H    -3.911000000     3.779000000     3.050000000
O     2.853000000     1.606000000    -4.508000000
H     3.745000000     1.677000000    -4.167000000
H     2.878000000     0.841000000    -5.084000000
O    -1.387000000     1.673000000    -3.768000000
H    -0.542000000     1.834000000    -4.189000000
H    -1.188000000     1.056000000    -3.063000000
O    -0.362000000     4.374000000     2.935000000
H    -0.537000000     4.651000000     2.036000000
H     0.042000000     3.510000000     2.845000000
O    -1.998000000    -6.409000000     2.209000000
H    -1.054000000    -6.455000000     2.054000000
H    -2.387000000    -6.835000000     1.445000000
O    -5.754000000    -1.228000000     2.122000000
H    -4.878000000    -0.843000000     2.171000000
H    -5.597000000    -2.163000000     1.993000000
O     3.657000000     1.727000000     1.048000000
H     3.467000000     1.254000000     0.238000000
H     3.865000000     1.041000000     1.682000000
O    -0.758000000     5.115000000     0.400000000
H    -1.561000000     5.198000000    -0.114000000
H    -0.068000000     4.989000000    -0.252000000
O     4.454000000    -2.832000000     1.596000000
H     4.589000000    -3.413000000     2.344000000
H     4.000000000    -3.374000000     0.950000000
O     1.406000000     4.501000000    -1.595000000
H     0.651000000     4.579000000    -2.179000000
H     2.153000000     4.760000000    -2.134000000
O     3.483000000    -0.356000000     2.713000000
H     3.671000000    -1.122000000     2.172000000
H     2.669000000    -0.575000000     3.165000000
O    -4.121000000    -0.950000000     4.558000000
H    -4.032000000    -1.882000000     4.757000000
H    -3.762000000    -0.858000000     3.675000000
O     5.343000000     2.436000000    -3.391000000
H     5.002000000     2.824000000    -2.586000000
H     6.212000000     2.113000000    -3.153000000
O     3.682000000     5.315000000    -2.666000000
H     4.104000000     5.158000000    -3.511000000
H     4.007000000     6.172000000    -2.392000000
O    -1.047000000     5.281000000    -3.048000000
H    -1.806000000     5.807000000    -2.799000000
H    -1.100000000     5.221000000    -4.002000000
O    -7.247000000    -0.721000000     4.948000000
H    -6.391000000    -0.974000000     4.603000000
H    -7.873000000    -1.232000000     4.436000000
O     2.216000000    -5.462000000     2.318000000
H     1.599000000    -6.117000000     1.993000000
H     2.739000000    -5.224000000     1.553000000
O    -1.268000000    -4.514000000     0.254000000
H    -1.799000000    -4.264000000     1.010000000
H    -1.781000000    -4.229000000    -0.503000000
O    -3.182000000    -0.695000000    -1.802000000
H    -3.626000000    -0.089000000    -1.209000000
H    -3.607000000    -0.556000000    -2.649000000
O     2.133000000    -0.658000000    -6.402000000
H     1.238000000    -0.641000000    -6.064000000
H     2.030000000    -0.734000000    -7.351000000
O    -4.533000000     3.542000000    -1.789000000
H    -4.540000000     2.828000000    -1.151000000
H    -5.383000000     3.968000000    -1.680000000
O    -3.204000000    -3.307000000     5.882000000
H    -3.203000000    -3.904000000     5.135000000
H    -2.431000000    -2.757000000     5.751000000
O    -0.896000000    -2.558000000     3.838000000
H    -1.676000000    -2.257000000     3.372000000
H    -0.638000000    -1.811000000     4.379000000
O    -7.392000000    -1.478000000    -0.487000000
H    -8.028000000    -1.231000000     0.184000000
H    -6.541000000    -1.293000000    -0.090000000
