158
-3030.41490
C    -1.225000000     0.418000000     0.672000000
H    -2.098000000     0.838000000     1.166000000
C    -0.334000000     1.254000000     0.060000000
H    -0.495000000     2.323000000    -0.054000000
C     0.768000000     0.694000000    -0.654000000
H     1.447000000     1.331000000    -1.139000000
C     0.977000000    -0.660000000    -0.631000000
H     1.798000000    -1.077000000    -1.209000000
C     0.086000000    -1.465000000     0.029000000
H     0.222000000    -2.540000000     0.115000000
C    -1.053000000    -0.984000000     0.706000000
C    -1.971000000    -1.820000000     1.544000000
O    -2.888000000    -1.327000000     2.075000000
O    -1.761000000    -3.011000000     1.629000000
O    -1.634000000     1.056000000    -5.060000000
H    -2.064000000     1.172000000    -4.213000000
H    -2.158000000     1.578000000    -5.668000000
O     1.696000000     2.543000000     3.191000000
H     1.278000000     3.284000000     2.752000000
H     2.590000000     2.838000000     3.359000000
O     1.020000000    -4.985000000    -0.656000000
H     1.307000000    -5.503000000     0.095000000
H     0.064000000    -4.987000000    -0.597000000
O     2.816000000    -3.326000000     2.878000000
H     3.186000000    -2.647000000     2.314000000
H     2.021000000    -3.607000000     2.426000000
O     4.353000000     2.118000000     1.141000000
H     4.675000000     2.179000000     2.041000000
H     5.126000000     1.889000000     0.626000000
O     2.694000000     1.923000000    -4.525000000
H     2.623000000     2.725000000    -5.043000000
H     3.616000000     1.882000000    -4.272000000
O    -5.454000000     1.625000000     5.344000000
H    -5.273000000     1.126000000     4.547000000
H    -4.685000000     1.482000000     5.896000000
O    -1.744000000    -4.907000000    -0.482000000
H    -1.967000000    -4.225000000     0.152000000
H    -2.369000000    -4.784000000    -1.196000000
O     4.102000000    -0.843000000    -4.454000000
H     3.952000000    -0.113000000    -3.853000000
H     4.998000000    -1.124000000    -4.272000000
O     0.613000000     4.986000000     2.087000000
H     0.782000000     5.863000000     2.431000000
H    -0.101000000     5.108000000     1.461000000
O    -6.096000000    -0.940000000     0.925000000
H    -7.011000000    -1.104000000     0.698000000
H    -5.777000000    -1.779000000     1.258000000
O     2.418000000    -2.338000000    -6.111000000
H     1.673000000    -1.815000000    -6.407000000
H     2.782000000    -1.844000000    -5.377000000
O    -1.424000000    -2.127000000    -3.720000000
H    -0.923000000    -1.849000000    -2.954000000
H    -1.179000000    -1.504000000    -4.405000000
O    -0.773000000     2.964000000     4.401000000
H    -1.285000000     2.190000000     4.164000000
H     0.090000000     2.807000000     4.017000000
O    -1.722000000    -0.039000000     4.262000000
H    -0.955000000    -0.596000000     4.127000000
H    -2.176000000    -0.047000000     3.420000000
O     5.939000000     5.122000000     0.784000000
H     6.260000000     6.017000000     0.896000000
H     5.090000000     5.116000000     1.227000000
O    -1.970000000     5.482000000     0.962000000
H    -2.732000000     5.019000000     0.613000000
H    -1.682000000     6.044000000     0.243000000
O    -2.241000000     0.672000000    -2.371000000
H    -1.558000000     0.844000000    -1.723000000
H    -2.984000000     0.355000000    -1.857000000
O     1.686000000     0.020000000     2.214000000
H     1.777000000     0.791000000     2.773000000
H     1.255000000     0.346000000     1.424000000
O     1.424000000    -6.352000000     1.776000000
H     0.693000000    -6.146000000     2.359000000
H     2.204000000    -6.211000000     2.312000000
O     3.894000000    -3.917000000    -1.296000000
H     2.956000000    -4.066000000    -1.416000000
H     4.008000000    -2.979000000    -1.445000000
O     3.241000000     4.015000000    -0.709000000
H     3.426000000     3.236000000    -0.184000000
H     3.043000000     4.696000000    -0.066000000
O     4.851000000    -0.826000000    -1.233000000
H     5.702000000    -1.252000000    -1.332000000
H     4.970000000     0.041000000    -1.621000000
O    -4.562000000    -3.370000000     0.915000000
H    -4.674000000    -4.152000000     1.456000000
H    -3.727000000    -3.000000000     1.202000000
O    -3.986000000     4.416000000    -0.236000000
H    -4.703000000     3.925000000     0.166000000
H    -4.415000000     5.154000000    -0.669000000
O    -4.315000000    -6.558000000    -0.630000000
H    -4.361000000    -6.498000000    -1.584000000
H    -3.381000000    -6.646000000    -0.440000000
O     3.943000000    -1.258000000     1.361000000
H     4.237000000    -1.076000000     0.469000000
H     3.124000000    -0.770000000     1.447000000
O     0.881000000     6.175000000    -2.570000000
H     0.874000000     5.272000000    -2.252000000
H     0.362000000     6.659000000    -1.927000000
O     4.808000000     0.225000000    -6.774000000
H     4.001000000     0.124000000    -7.278000000
H     4.566000000    -0.022000000    -5.882000000
O     5.152000000     1.428000000    -3.254000000
H     5.322000000     2.370000000    -3.284000000
H     6.006000000     1.035000000    -3.075000000
O    -1.515000000     4.217000000    -3.057000000
H    -0.597000000     4.078000000    -2.826000000
H    -1.983000000     3.505000000    -2.621000000
O    -4.937000000    -0.084000000     3.288000000
H    -5.474000000    -0.104000000     2.496000000
H    -4.093000000    -0.443000000     3.014000000
O     0.260000000    -1.789000000     3.885000000
H     0.232000000    -2.745000000     3.846000000
H     0.974000000    -1.546000000     3.296000000
O     1.312000000     3.446000000    -2.797000000
H     1.963000000     3.605000000    -2.114000000
H     1.753000000     2.865000000    -3.418000000
O    -4.163000000    -0.632000000    -0.963000000
H    -4.307000000    -1.504000000    -1.331000000
H    -4.869000000    -0.521000000    -0.327000000
O    -5.443000000    -3.347000000    -1.633000000
H    -6.073000000    -4.055000000    -1.766000000
H    -5.134000000    -3.466000000    -0.735000000
O     4.762000000     4.124000000    -3.331000000
H     4.252000000     4.259000000    -2.533000000
H     4.656000000     4.938000000    -3.824000000
O     3.066000000     5.945000000     1.232000000
H     3.006000000     6.708000000     1.807000000
H     2.201000000     5.538000000     1.285000000
O    -3.207000000    -0.053000000     6.568000000
H    -2.637000000    -0.082000000     5.800000000
H    -2.643000000     0.269000000     7.272000000
O    -2.302000000    -3.067000000     5.025000000
H    -2.633000000    -3.821000000     4.535000000
H    -2.294000000    -2.353000000     4.388000000
O     0.799000000     0.090000000    -5.475000000
H     1.500000000     0.658000000    -5.155000000
H    -0.007000000     0.518000000    -5.187000000
O    -4.722000000    -5.829000000     2.069000000
H    -5.289000000    -6.404000000     2.582000000
H    -4.724000000    -6.211000000     1.191000000
O     1.491000000    -5.645000000    -3.233000000
H     0.648000000    -5.592000000    -3.684000000
H     1.271000000    -5.566000000    -2.305000000
O    -4.421000000     1.861000000    -3.523000000
H    -5.118000000     1.212000000    -3.622000000
H    -4.340000000     1.981000000    -2.576000000
O    -2.741000000    -5.572000000     3.688000000
H    -2.154000000    -6.221000000     3.302000000
H    -3.467000000    -5.506000000     3.067000000
O    -0.114000000    -4.304000000     3.310000000
H    -0.909000000    -3.925000000     2.933000000
H    -0.403000000    -4.692000000     4.136000000
O    -5.035000000    -2.257000000     5.802000000
H    -5.150000000    -1.876000000     4.931000000
H    -4.400000000    -1.684000000     6.232000000
O     3.284000000     6.843000000    -3.635000000
H     3.445000000     7.372000000    -2.855000000
H     2.521000000     6.310000000    -3.410000000
