158
-3038.89575
C     1.338000000     0.591000000     0.086000000
H     2.287000000     1.047000000     0.358000000
C     0.415000000     0.632000000     1.110000000
H     0.676000000     0.998000000     2.099000000
C    -0.862000000     0.036000000     0.934000000
H    -1.537000000     0.053000000     1.736000000
C    -1.174000000    -0.533000000    -0.314000000
H    -2.108000000    -1.062000000    -0.484000000
C    -0.141000000    -0.597000000    -1.351000000
H    -0.496000000    -1.079000000    -2.258000000
C     1.103000000    -0.032000000    -1.162000000
C     2.233000000    -0.150000000    -2.174000000
O     2.100000000    -0.945000000    -3.048000000
O     3.269000000     0.477000000    -2.143000000
O    -3.798000000    -1.712000000    -3.647000000
H    -3.534000000    -2.618000000    -3.805000000
H    -2.992000000    -1.206000000    -3.754000000
O    -0.299000000    -1.650000000     4.477000000
H    -1.079000000    -2.163000000     4.267000000
H     0.390000000    -2.026000000     3.929000000
O     0.523000000    -3.063000000    -6.231000000
H     0.994000000    -2.925000000    -5.409000000
H     0.870000000    -2.394000000    -6.821000000
O    -5.548000000     1.655000000     4.948000000
H    -5.081000000     1.273000000     5.692000000
H    -5.111000000     1.291000000     4.178000000
O    -4.596000000    -1.845000000     6.278000000
H    -4.006000000    -1.184000000     5.917000000
H    -5.429000000    -1.388000000     6.390000000
O     1.610000000     4.785000000     1.605000000
H     2.290000000     5.455000000     1.526000000
H     1.020000000     4.955000000     0.870000000
O     5.510000000     1.216000000     0.254000000
H     5.328000000     1.047000000    -0.671000000
H     4.951000000     1.961000000     0.475000000
O    -2.013000000     4.786000000     0.783000000
H    -2.471000000     4.791000000     1.624000000
H    -2.562000000     4.246000000     0.215000000
O    -0.862000000     1.668000000    -6.594000000
H    -0.338000000     1.242000000    -5.915000000
H    -0.556000000     2.575000000    -6.599000000
O    -3.968000000    -3.413000000     3.846000000
H    -3.886000000    -3.436000000     4.799000000
H    -4.568000000    -2.686000000     3.676000000
O     5.493000000     4.268000000    -1.228000000
H     5.092000000     4.024000000    -0.393000000
H     6.424000000     4.082000000    -1.110000000
O    -2.848000000     0.680000000     6.173000000
H    -1.980000000     0.682000000     5.770000000
H    -2.779000000     1.307000000     6.893000000
O     1.220000000     4.775000000    -3.856000000
H     1.506000000     5.682000000    -3.745000000
H     1.799000000     4.270000000    -3.285000000
O     3.903000000     1.343000000    -4.738000000
H     3.583000000     0.957000000    -3.923000000
H     4.474000000     0.673000000    -5.113000000
O    -6.464000000     2.726000000     1.343000000
H    -6.021000000     2.235000000     2.035000000
H    -6.045000000     2.431000000     0.534000000
O    -5.301000000     2.743000000    -1.230000000
H    -4.366000000     2.854000000    -1.057000000
H    -5.350000000     1.974000000    -1.798000000
O     1.164000000    -3.286000000    -3.297000000
H     1.049000000    -3.680000000    -2.432000000
H     1.608000000    -2.456000000    -3.125000000
O     8.149000000    -1.476000000    -1.943000000
H     7.916000000    -2.366000000    -2.209000000
H     7.318000000    -1.001000000    -1.946000000
O     2.895000000     3.267000000    -1.962000000
H     3.011000000     2.339000000    -2.166000000
H     3.777000000     3.635000000    -2.014000000
O     5.630000000    -0.666000000    -2.275000000
H     5.526000000    -1.359000000    -2.927000000
H     4.736000000    -0.377000000    -2.089000000
O     0.076000000    -5.347000000    -1.180000000
H    -0.232000000    -6.192000000    -0.853000000
H    -0.163000000    -4.723000000    -0.494000000
O     4.795000000    -4.332000000    -1.889000000
H     4.210000000    -3.722000000    -1.441000000
H     4.499000000    -5.198000000    -1.609000000
O     0.753000000    -2.595000000     1.140000000
H    -0.001000000    -2.939000000     1.619000000
H     0.419000000    -1.818000000     0.693000000
O    -0.774000000     3.762000000     4.078000000
H    -1.544000000     3.201000000     3.985000000
H    -0.325000000     3.695000000     3.235000000
O    -2.145000000     0.705000000    -3.825000000
H    -1.251000000     0.673000000    -4.166000000
H    -2.151000000     1.462000000    -3.239000000
O     2.275000000     1.564000000     4.697000000
H     2.890000000     0.870000000     4.459000000
H     2.472000000     2.278000000     4.090000000
O    -1.371000000    -3.404000000     2.696000000
H    -1.623000000    -3.920000000     1.931000000
H    -2.097000000    -3.517000000     3.310000000
O    -4.640000000     0.842000000     2.205000000
H    -5.235000000     0.098000000     2.299000000
H    -3.921000000     0.508000000     1.668000000
O     6.816000000     1.709000000    -3.209000000
H     6.287000000     2.300000000    -3.746000000
H     6.412000000     0.850000000    -3.331000000
O     1.942000000    -0.448000000    -7.075000000
H     1.600000000    -0.384000000    -7.967000000
H     2.545000000     0.291000000    -6.996000000
O    -5.634000000    -3.774000000     1.045000000
H    -4.962000000    -3.846000000     0.367000000
H    -6.222000000    -4.511000000     0.878000000
O    -5.821000000    -1.574000000     2.828000000
H    -5.651000000    -2.213000000     2.136000000
H    -6.704000000    -1.780000000     3.133000000
O    -0.026000000     0.696000000     6.029000000
H    -0.110000000    -0.094000000     5.495000000
H     0.789000000     1.101000000     5.732000000
O    -0.690000000     3.159000000    -2.764000000
H     0.107000000     3.487000000    -3.181000000
H    -1.338000000     3.848000000    -2.912000000
O    -0.273000000    -5.502000000    -3.841000000
H    -0.090000000    -5.863000000    -2.974000000
H     0.254000000    -4.704000000    -3.886000000
O     4.287000000    -2.472000000    -3.854000000
H     4.360000000    -3.246000000    -3.297000000
H     3.571000000    -1.966000000    -3.470000000
O     3.332000000     3.655000000    -6.089000000
H     3.520000000     2.821000000    -5.658000000
H     2.397000000     3.616000000    -6.289000000
O     3.964000000    -2.360000000    -6.554000000
H     3.423000000    -1.573000000    -6.488000000
H     4.385000000    -2.434000000    -5.698000000
O    -3.440000000     4.595000000     3.140000000
H    -3.234000000     4.699000000     4.069000000
H    -4.330000000     4.935000000     3.052000000
O     4.438000000    -1.107000000     1.096000000
H     4.295000000    -0.738000000     1.968000000
H     4.922000000    -0.429000000     0.625000000
O    -3.100000000    -4.342000000    -3.874000000
H    -2.180000000    -4.583000000    -3.766000000
H    -3.547000000    -5.171000000    -4.041000000
O     3.966000000     3.290000000     1.077000000
H     3.056000000     3.382000000     0.795000000
H     3.945000000     3.476000000     2.016000000
O     0.474000000     0.148000000    -4.898000000
H     0.927000000    -0.026000000    -5.723000000
H     1.150000000     0.045000000    -4.227000000
O    -2.296000000     2.174000000    -0.967000000
H    -1.830000000     1.407000000    -0.633000000
H    -1.638000000     2.653000000    -1.471000000
O     3.082000000    -2.694000000    -0.609000000
H     3.584000000    -1.961000000    -0.253000000
H     2.310000000    -2.752000000    -0.046000000
O    -5.442000000     0.619000000    -3.175000000
H    -5.212000000     1.072000000    -3.986000000
H    -4.883000000    -0.158000000    -3.167000000
O     3.546000000    -0.850000000     3.634000000
H     3.191000000    -1.445000000     4.295000000
H     4.472000000    -1.084000000     3.573000000
O    -3.362000000    -3.615000000    -0.537000000
H    -2.869000000    -4.272000000    -0.046000000
H    -2.964000000    -3.618000000    -1.407000000
