158
-3053.69828
C    -1.232000000     0.878000000     0.338000000
H    -2.029000000     1.602000000     0.489000000
C    -0.699000000     0.595000000    -0.942000000
H    -1.051000000     1.226000000    -1.754000000
C     0.400000000    -0.246000000    -1.143000000
H     0.812000000    -0.422000000    -2.084000000
C     1.042000000    -0.798000000    -0.063000000
H     1.956000000    -1.376000000    -0.170000000
C     0.482000000    -0.679000000     1.207000000
H     1.031000000    -1.098000000     2.046000000
C    -0.574000000     0.193000000     1.371000000
C    -1.051000000     0.423000000     2.790000000
O    -1.738000000     1.366000000     3.108000000
O    -0.662000000    -0.260000000     3.699000000
O    -2.293000000    -0.050000000     6.034000000
H    -2.066000000     0.599000000     6.700000000
H    -1.618000000     0.051000000     5.362000000
O     2.244000000     2.655000000     3.938000000
H     1.714000000     3.418000000     4.168000000
H     3.093000000     2.820000000     4.350000000
O     4.790000000    -2.806000000    -0.511000000
H     5.438000000    -2.240000000    -0.090000000
H     4.464000000    -2.289000000    -1.248000000
O     2.522000000     1.542000000     1.464000000
H     2.248000000     0.628000000     1.532000000
H     2.289000000     1.926000000     2.310000000
O    -2.703000000    -1.847000000    -0.244000000
H    -2.709000000    -2.755000000     0.060000000
H    -1.903000000    -1.476000000     0.127000000
O    -0.726000000    -1.024000000    -5.478000000
H    -1.131000000    -1.705000000    -4.942000000
H    -1.249000000    -0.241000000    -5.306000000
O     3.700000000     1.730000000    -1.038000000
H     3.498000000     1.791000000    -0.104000000
H     3.341000000     0.884000000    -1.305000000
O    -5.644000000     2.492000000    -2.115000000
H    -5.119000000     3.042000000    -1.532000000
H    -6.509000000     2.469000000    -1.707000000
O     1.245000000    -6.070000000    -4.273000000
H     1.978000000    -5.635000000    -4.707000000
H     1.461000000    -7.002000000    -4.315000000
O     2.403000000     1.181000000    -5.050000000
H     2.709000000     1.380000000    -5.936000000
H     1.453000000     1.103000000    -5.137000000
O     0.753000000    -0.438000000    -7.752000000
H     0.477000000     0.429000000    -8.051000000
H     0.219000000    -0.605000000    -6.976000000
O     0.854000000     5.014000000     4.302000000
H     1.282000000     5.830000000     4.043000000
H     0.652000000     5.134000000     5.230000000
O    -0.806000000     2.095000000     7.640000000
H    -1.475000000     2.432000000     8.236000000
H    -0.708000000     2.781000000     6.979000000
O     3.785000000    -4.823000000    -4.970000000
H     3.841000000    -4.758000000    -4.016000000
H     3.712000000    -3.916000000    -5.267000000
O    -4.271000000     5.140000000     3.799000000
H    -3.453000000     4.648000000     3.738000000
H    -4.161000000     5.865000000     3.184000000
O     2.065000000     2.992000000    -2.822000000
H     1.801000000     2.250000000    -3.366000000
H     2.743000000     2.638000000    -2.247000000
O    -3.887000000     4.807000000    -2.817000000
H    -3.455000000     5.635000000    -3.027000000
H    -3.174000000     4.171000000    -2.764000000
O     3.579000000    -1.018000000     2.733000000
H     2.947000000    -0.722000000     3.389000000
H     3.217000000    -1.842000000     2.408000000
O     2.823000000    -3.535000000     1.660000000
H     3.573000000    -3.522000000     1.065000000
H     2.124000000    -3.950000000     1.155000000
O    -5.120000000     0.638000000    -3.970000000
H    -5.967000000     0.605000000    -4.413000000
H    -5.200000000     1.366000000    -3.353000000
O     3.765000000    -1.474000000    -2.398000000
H     4.233000000    -0.806000000    -2.899000000
H     3.301000000    -1.987000000    -3.059000000
O     0.368000000     4.344000000     0.584000000
H     1.171000000     4.852000000     0.467000000
H     0.651000000     3.432000000     0.530000000
O    -6.640000000     3.094000000     2.442000000
H    -7.208000000     2.406000000     2.788000000
H    -5.780000000     2.906000000     2.817000000
O    -4.116000000     2.255000000     2.272000000
H    -4.434000000     1.448000000     1.868000000
H    -3.261000000     2.022000000     2.633000000
O     0.211000000     5.202000000    -2.020000000
H     0.049000000     5.193000000    -1.077000000
H     1.132000000     4.954000000    -2.107000000
O     4.136000000    -5.168000000    -2.045000000
H     3.980000000    -4.363000000    -1.550000000
H     4.729000000    -5.678000000    -1.493000000
O     5.777000000    -1.035000000     1.218000000
H     6.379000000    -0.985000000     1.961000000
H     4.918000000    -1.179000000     1.616000000
O    -4.907000000    -0.278000000     1.504000000
H    -4.944000000    -1.023000000     2.104000000
H    -4.731000000    -0.669000000     0.647000000
O     4.827000000     0.531000000    -3.706000000
H     4.021000000     0.891000000    -4.077000000
H     5.042000000     1.121000000    -2.984000000
O     0.521000000    -4.317000000     3.398000000
H     0.882000000    -4.331000000     4.284000000
H     1.285000000    -4.224000000     2.829000000
O     1.663000000    -0.035000000     4.956000000
H     0.796000000    -0.164000000     4.572000000
H     1.890000000     0.869000000     4.736000000
O     2.375000000    -1.824000000     7.873000000
H     1.948000000    -1.737000000     7.021000000
H     2.141000000    -1.023000000     8.341000000
O    -1.384000000     3.126000000    -3.578000000
H    -1.244000000     3.457000000    -4.465000000
H    -0.744000000     3.595000000    -3.043000000
O    -2.500000000     5.391000000     0.690000000
H    -1.706000000     5.267000000     0.170000000
H    -2.562000000     4.600000000     1.226000000
O    -1.798000000     3.920000000     3.096000000
H    -1.478000000     3.020000000     3.030000000
H    -1.095000000     4.392000000     3.542000000
O    -2.478000000     0.878000000    -4.694000000
H    -3.271000000     0.646000000    -4.211000000
H    -2.297000000     1.782000000    -4.438000000
O    -2.566000000    -2.654000000    -4.197000000
H    -3.235000000    -2.413000000    -3.556000000
H    -3.039000000    -3.160000000    -4.858000000
O    -1.796000000    -2.727000000     4.237000000
H    -1.067000000    -3.330000000     4.094000000
H    -1.384000000    -1.867000000     4.311000000
O    -4.045000000     1.898000000     5.023000000
H    -3.451000000     1.152000000     4.943000000
H    -4.032000000     2.308000000     4.158000000
O    -4.265000000    -1.472000000    -2.313000000
H    -4.307000000    -0.556000000    -2.590000000
H    -3.692000000    -1.464000000    -1.546000000
O     2.062000000    -2.749000000    -3.945000000
H     1.536000000    -3.273000000    -3.340000000
H     1.448000000    -2.107000000    -4.302000000
O     1.794000000    -5.363000000    -0.029000000
H     1.096000000    -6.015000000     0.029000000
H     2.306000000    -5.628000000    -0.793000000
O    -4.342000000    -2.513000000     3.133000000
H    -3.497000000    -2.637000000     3.567000000
H    -4.887000000    -3.227000000     3.462000000
O    -0.990000000    -5.944000000     1.998000000
H    -1.543000000    -6.253000000     2.716000000
H    -0.415000000    -5.294000000     2.401000000
O    -0.733000000    -3.853000000     7.240000000
H    -0.830000000    -3.696000000     8.179000000
H    -1.562000000    -3.562000000     6.861000000
O     4.909000000    -3.126000000     4.627000000
H     4.622000000    -2.615000000     3.871000000
H     5.864000000    -3.133000000     4.564000000
O    -3.035000000    -2.258000000     7.330000000
H    -3.889000000    -2.501000000     6.972000000
H    -2.793000000    -1.463000000     6.855000000
O     3.082000000     5.509000000    -2.397000000
H     2.849000000     4.627000000    -2.688000000
H     3.360000000     5.959000000    -3.195000000
