158
-3044.64669
C    -0.699000000     1.183000000     0.553000000
H    -1.153000000     2.134000000     0.822000000
C    -0.374000000     1.020000000    -0.773000000
H    -0.707000000     1.765000000    -1.490000000
C     0.329000000    -0.104000000    -1.201000000
H     0.575000000    -0.114000000    -2.289000000
C     0.671000000    -1.071000000    -0.254000000
H     1.064000000    -2.061000000    -0.473000000
C     0.297000000    -0.941000000     1.092000000
H     0.709000000    -1.675000000     1.781000000
C    -0.291000000     0.235000000     1.498000000
C    -0.461000000     0.645000000     2.981000000
O    -1.105000000     1.590000000     3.347000000
O    -0.096000000    -0.195000000     3.836000000
O    -3.403000000    -0.436000000     5.766000000
H    -2.572000000    -0.672000000     5.353000000
H    -3.810000000     0.176000000     5.152000000
O     2.678000000     1.258000000     6.301000000
H     2.261000000     1.716000000     7.030000000
H     3.588000000     1.556000000     6.319000000
O    -2.090000000    -4.895000000     0.169000000
H    -2.962000000    -4.774000000     0.544000000
H    -1.684000000    -5.565000000     0.718000000
O    -2.824000000    -1.061000000    -7.242000000
H    -3.113000000    -1.176000000    -6.336000000
H    -2.001000000    -1.546000000    -7.294000000
O     4.359000000    -2.845000000    -0.732000000
H     5.128000000    -2.939000000    -1.295000000
H     4.127000000    -1.918000000    -0.798000000
O     2.929000000     2.321000000     3.320000000
H     3.548000000     2.536000000     4.018000000
H     2.928000000     1.365000000     3.287000000
O    -0.502000000    -2.428000000    -6.564000000
H    -0.167000000    -3.184000000    -7.046000000
H    -0.760000000    -2.782000000    -5.713000000
O     2.758000000     3.413000000    -4.750000000
H     2.987000000     4.340000000    -4.688000000
H     2.923000000     3.186000000    -5.665000000
O    -1.887000000    -2.484000000    -1.451000000
H    -1.851000000    -3.336000000    -1.014000000
H    -1.164000000    -1.989000000    -1.068000000
O     0.648000000     0.557000000    -5.435000000
H     0.410000000     1.476000000    -5.315000000
H    -0.180000000     0.083000000    -5.352000000
O     2.673000000     2.184000000     0.501000000
H     2.807000000     2.448000000     1.411000000
H     1.752000000     2.381000000     0.328000000
O    -5.923000000     2.820000000     1.098000000
H    -5.344000000     2.397000000     0.464000000
H    -6.412000000     2.099000000     1.494000000
O     1.766000000    -4.305000000    -1.413000000
H     2.519000000    -3.732000000    -1.265000000
H     1.837000000    -4.560000000    -2.332000000
O     3.285000000     0.745000000    -3.737000000
H     2.553000000     0.432000000    -4.269000000
H     3.127000000     1.685000000    -3.642000000
O    -5.827000000     0.269000000     2.602000000
H    -5.396000000    -0.470000000     2.173000000
H    -5.109000000     0.775000000     2.984000000
O     1.269000000    -4.860000000    -4.456000000
H     1.833000000    -4.240000000    -4.918000000
H     0.405000000    -4.448000000    -4.462000000
O    -0.077000000     1.870000000     5.951000000
H     0.829000000     1.589000000     5.821000000
H    -0.542000000     1.544000000     5.181000000
O    -0.931000000     0.077000000     7.619000000
H    -1.776000000     0.426000000     7.899000000
H    -0.559000000     0.763000000     7.065000000
O    -1.164000000     5.422000000    -2.080000000
H    -0.567000000     6.090000000    -2.420000000
H    -0.955000000     4.636000000    -2.584000000
O     4.718000000    -1.088000000     1.637000000
H     4.051000000    -0.967000000     2.312000000
H     4.413000000    -0.558000000     0.901000000
O     3.724000000    -4.607000000     1.300000000
H     3.809000000    -3.855000000     0.714000000
H     4.419000000    -5.205000000     1.025000000
O    -4.574000000     0.569000000    -3.193000000
H    -4.817000000    -0.351000000    -3.294000000
H    -4.603000000     0.723000000    -2.249000000
O     2.623000000     1.502000000    -7.476000000
H     2.515000000     1.915000000    -8.333000000
H     1.787000000     1.645000000    -7.034000000
O     3.862000000    -0.194000000    -1.283000000
H     3.658000000     0.592000000    -0.776000000
H     3.567000000     0.011000000    -2.171000000
O    -3.606000000     1.773000000     3.746000000
H    -3.608000000     2.430000000     4.442000000
H    -2.709000000     1.782000000     3.410000000
O    -1.705000000    -6.144000000    -2.243000000
H    -1.630000000    -5.845000000    -1.336000000
H    -0.905000000    -5.830000000    -2.665000000
O    -4.132000000     0.992000000    -0.373000000
H    -3.200000000     1.183000000    -0.479000000
H    -4.155000000     0.169000000     0.115000000
O     1.706000000    -4.129000000     3.312000000
H     2.034000000    -3.321000000     3.706000000
H     2.444000000    -4.464000000     2.804000000
O     1.206000000    -7.068000000    -1.599000000
H     1.152000000    -6.149000000    -1.337000000
H     2.069000000    -7.352000000    -1.296000000
O     5.952000000    -2.868000000    -2.935000000
H     5.339000000    -2.423000000    -3.520000000
H     6.600000000    -2.199000000    -2.713000000
O     5.001000000    -1.281000000    -4.959000000
H     5.682000000    -0.777000000    -5.403000000
H     4.374000000    -0.623000000    -4.658000000
O     2.644000000    -0.509000000     3.621000000
H     1.698000000    -0.504000000     3.478000000
H     2.743000000    -0.487000000     4.573000000
O     2.132000000    -1.634000000     7.416000000
H     1.334000000    -1.381000000     6.953000000
H     2.819000000    -1.592000000     6.752000000
O    -0.584000000     2.847000000    -3.906000000
H    -1.419000000     3.189000000    -4.227000000
H     0.071000000     3.233000000    -4.487000000
O    -0.410000000     6.483000000     1.785000000
H     0.403000000     6.988000000     1.791000000
H    -0.130000000     5.576000000     1.906000000
O     0.462000000     3.643000000     2.504000000
H    -0.270000000     3.098000000     2.793000000
H     1.186000000     3.397000000     3.079000000
O    -1.900000000     0.174000000    -4.468000000
H    -2.662000000     0.072000000    -3.898000000
H    -1.518000000     1.012000000    -4.209000000
O    -1.094000000    -3.526000000    -4.268000000
H    -1.278000000    -3.124000000    -3.419000000
H    -1.952000000    -3.612000000    -4.683000000
O    -1.907000000    -2.335000000     3.037000000
H    -1.772000000    -2.799000000     3.863000000
H    -1.257000000    -1.632000000     3.047000000
O    -0.908000000     4.944000000     6.017000000
H    -0.259000000     5.241000000     6.655000000
H    -0.686000000     4.026000000     5.861000000
O    -4.487000000    -1.991000000    -2.594000000
H    -4.702000000    -2.923000000    -2.560000000
H    -3.647000000    -1.923000000    -2.139000000
O     3.222000000    -3.116000000    -5.819000000
H     3.794000000    -2.364000000    -5.664000000
H     2.496000000    -2.762000000    -6.334000000
O     3.413000000    -7.135000000    -0.054000000
H     3.823000000    -7.396000000     0.771000000
H     3.088000000    -6.250000000     0.109000000
O    -4.083000000    -1.715000000     1.588000000
H    -4.139000000    -2.481000000     1.016000000
H    -3.190000000    -1.738000000     1.932000000
O     0.442000000    -6.468000000     2.683000000
H    -0.374000000    -6.703000000     3.124000000
H     0.481000000    -5.514000000     2.743000000
O    -1.901000000    -4.215000000     5.289000000
H    -2.249000000    -4.634000000     6.076000000
H    -1.193000000    -3.655000000     5.609000000
O    -2.259000000     6.958000000    -0.162000000
H    -1.592000000     6.771000000     0.498000000
H    -1.967000000     6.482000000    -0.940000000
O    -0.716000000    -1.823000000     5.696000000
H    -0.649000000    -1.345000000     6.522000000
H    -0.450000000    -1.189000000     5.030000000
