158
-3034.31129
C    -0.571000000     1.301000000     0.443000000
H    -0.911000000     2.313000000     0.648000000
C     0.593000000     1.122000000    -0.262000000
H     1.198000000     1.967000000    -0.581000000
C     0.979000000    -0.130000000    -0.672000000
H     1.931000000    -0.173000000    -1.163000000
C     0.260000000    -1.205000000    -0.317000000
H     0.581000000    -2.198000000    -0.622000000
C    -0.940000000    -1.083000000     0.433000000
H    -1.429000000    -2.009000000     0.726000000
C    -1.320000000     0.195000000     0.848000000
C    -2.525000000     0.369000000     1.629000000
O    -2.600000000     1.373000000     2.295000000
O    -3.363000000    -0.501000000     1.671000000
O    -2.979000000     3.486000000    -1.699000000
H    -2.715000000     2.799000000    -2.311000000
H    -3.542000000     3.040000000    -1.066000000
O    -4.900000000    -0.427000000     3.932000000
H    -5.561000000     0.129000000     3.520000000
H    -4.198000000    -0.485000000     3.284000000
O    -1.417000000     3.662000000     2.654000000
H    -1.808000000     2.810000000     2.461000000
H    -1.672000000     3.844000000     3.558000000
O     2.145000000    -7.309000000     0.000000000
H     1.385000000    -7.751000000    -0.380000000
H     1.926000000    -6.379000000    -0.042000000
O    -2.341000000    -1.635000000    -4.046000000
H    -3.148000000    -1.868000000    -4.503000000
H    -2.025000000    -2.461000000    -3.681000000
O    -0.379000000    -0.949000000    -5.996000000
H    -0.944000000    -0.686000000    -6.723000000
H    -0.972000000    -1.029000000    -5.249000000
O    -0.908000000     7.476000000     0.179000000
H    -1.184000000     7.090000000    -0.652000000
H    -0.366000000     6.802000000     0.588000000
O     3.288000000     3.533000000    -1.583000000
H     3.142000000     3.914000000    -0.717000000
H     3.055000000     4.232000000    -2.194000000
O     3.598000000     1.593000000    -3.879000000
H     3.654000000     2.379000000    -4.421000000
H     3.435000000     1.923000000    -2.995000000
O    -2.429000000    -4.102000000    -2.693000000
H    -3.177000000    -4.405000000    -3.208000000
H    -2.815000000    -3.785000000    -1.876000000
O    -2.705000000     1.931000000     4.923000000
H    -2.364000000     1.135000000     5.331000000
H    -2.895000000     1.676000000     4.020000000
O     4.218000000    -2.124000000     2.104000000
H     4.279000000    -3.077000000     2.040000000
H     3.929000000    -1.843000000     1.236000000
O    -1.531000000     4.495000000     5.502000000
H    -1.913000000     3.619000000     5.462000000
H    -1.830000000     4.849000000     6.339000000
O     6.415000000    -1.552000000    -2.337000000
H     7.292000000    -1.789000000    -2.036000000
H     6.564000000    -1.051000000    -3.139000000
O    -6.653000000    -3.620000000     2.478000000
H    -7.213000000    -2.957000000     2.076000000
H    -6.667000000    -4.352000000     1.862000000
O    -3.664000000    -2.975000000    -0.567000000
H    -3.287000000    -2.871000000     0.307000000
H    -4.346000000    -2.305000000    -0.615000000
O    -6.956000000     0.411000000    -0.732000000
H    -6.427000000     1.171000000    -0.490000000
H    -6.953000000    -0.141000000     0.050000000
O    -1.551000000    -6.603000000     1.129000000
H    -1.126000000    -7.385000000     1.482000000
H    -2.359000000    -6.520000000     1.637000000
O    -5.460000000     5.739000000     0.555000000
H    -4.990000000     6.461000000     0.137000000
H    -4.804000000     5.314000000     1.108000000
O     6.054000000     0.707000000    -4.487000000
H     5.106000000     0.597000000    -4.415000000
H     6.260000000     1.417000000    -3.879000000
O     2.024000000     0.888000000    -6.101000000
H     2.656000000     0.583000000    -5.450000000
H     1.212000000     0.435000000    -5.876000000
O     3.908000000    -2.039000000    -1.060000000
H     4.724000000    -1.916000000    -1.545000000
H     3.245000000    -1.595000000    -1.589000000
O     4.257000000    -5.137000000     0.653000000
H     5.172000000    -5.258000000     0.907000000
H     4.301000000    -4.786000000    -0.237000000
O    -3.637000000    -3.094000000     5.823000000
H    -2.933000000    -3.307000000     6.436000000
H    -3.216000000    -2.555000000     5.153000000
O     0.932000000    -4.348000000    -3.988000000
H     1.316000000    -4.265000000    -3.115000000
H     1.415000000    -3.718000000    -4.523000000
O    -6.304000000    -2.809000000     4.974000000
H    -5.834000000    -1.984000000     4.846000000
H    -6.494000000    -3.115000000     4.087000000
O    -4.576000000     1.520000000     0.005000000
H    -4.576000000     2.254000000     0.620000000
H    -4.160000000     0.804000000     0.486000000
O    -0.191000000    -4.503000000     0.121000000
H    -0.553000000    -5.356000000     0.360000000
H    -0.769000000    -4.183000000    -0.571000000
O     0.727000000     5.339000000     2.065000000
H     0.605000000     5.882000000     2.844000000
H     0.097000000     4.626000000     2.170000000
O     2.358000000    -4.076000000    -1.530000000
H     3.078000000    -3.611000000    -1.103000000
H     1.659000000    -4.088000000    -0.877000000
O     2.128000000    -2.279000000    -5.419000000
H     2.760000000    -1.683000000    -5.821000000
H     1.283000000    -1.843000000    -5.530000000
O    -4.798000000     2.299000000     6.704000000
H    -4.199000000     2.412000000     5.966000000
H    -4.982000000     1.360000000     6.722000000
O    -1.087000000     5.676000000    -2.024000000
H    -0.862000000     5.710000000    -2.954000000
H    -1.551000000     4.845000000    -1.920000000
O    -0.315000000    -6.761000000    -3.403000000
H    -1.139000000    -6.347000000    -3.147000000
H     0.347000000    -6.084000000    -3.261000000
O    -6.476000000     1.489000000     3.005000000
H    -6.745000000     1.957000000     2.214000000
H    -6.525000000     2.146000000     3.700000000
O     2.259000000     1.563000000     2.461000000
H     2.969000000     0.986000000     2.178000000
H     1.818000000     1.815000000     1.650000000
O    -4.130000000     3.635000000     1.899000000
H    -3.603000000     2.836000000     1.895000000
H    -3.565000000     4.292000000     2.306000000
O     6.152000000     1.033000000     0.801000000
H     5.899000000     0.668000000     1.649000000
H     6.325000000     0.268000000     0.252000000
O     4.237000000    -0.158000000     4.275000000
H     3.920000000    -0.330000000     5.162000000
H     3.751000000    -0.770000000     3.723000000
O     6.812000000     2.672000000    -2.259000000
H     5.997000000     3.045000000    -1.922000000
H     7.192000000     2.211000000    -1.512000000
O    -4.851000000    -4.866000000     3.938000000
H    -4.945000000    -4.337000000     4.730000000
H    -5.376000000    -4.409000000     3.281000000
O    -2.451000000    -5.619000000     4.656000000
H    -1.834000000    -5.245000000     4.027000000
H    -3.286000000    -5.200000000     4.451000000
O     4.752000000    -0.852000000    -6.242000000
H     5.668000000    -0.761000000    -5.979000000
H     4.639000000    -0.210000000    -6.943000000
O    -2.689000000     0.935000000    -2.946000000
H    -2.386000000     0.240000000    -3.530000000
H    -2.864000000     0.491000000    -2.116000000
O    -0.481000000    -3.925000000     2.771000000
H     0.132000000    -4.553000000     3.153000000
H    -0.279000000    -3.933000000     1.835000000
O     2.912000000     5.776000000     0.017000000
H     2.090000000     5.498000000     0.421000000
H     2.674000000     6.540000000    -0.508000000
O    -5.037000000    -0.588000000     6.645000000
H    -4.593000000    -1.431000000     6.729000000
H    -4.943000000    -0.359000000     5.720000000
O    -2.441000000    -2.214000000     3.807000000
H    -1.752000000    -2.774000000     3.449000000
H    -2.595000000    -1.558000000     3.127000000
