158
-3049.41279
C    -0.579000000     1.383000000    -0.313000000
H    -0.933000000     2.366000000    -0.612000000
C     0.535000000     0.809000000    -0.932000000
H     1.040000000     1.433000000    -1.665000000
C     1.011000000    -0.399000000    -0.576000000
H     1.872000000    -0.798000000    -0.993000000
C     0.312000000    -1.190000000     0.372000000
H     0.737000000    -2.133000000     0.708000000
C    -0.752000000    -0.590000000     1.097000000
H    -1.218000000    -1.309000000     1.766000000
C    -1.272000000     0.662000000     0.687000000
C    -2.493000000     1.191000000     1.401000000
O    -2.725000000     2.346000000     1.484000000
O    -3.337000000     0.363000000     1.895000000
O    -3.156000000    -0.330000000    -2.897000000
H    -3.304000000    -0.583000000    -3.808000000
H    -3.758000000     0.400000000    -2.750000000
O    -5.760000000     1.689000000     2.398000000
H    -5.812000000     2.176000000     3.221000000
H    -4.952000000     1.180000000     2.473000000
O    -0.096000000     3.719000000     1.614000000
H    -0.912000000     3.220000000     1.653000000
H     0.226000000     3.722000000     2.516000000
O    -7.831000000     0.327000000     1.493000000
H    -7.780000000     0.605000000     0.578000000
H    -7.144000000     0.826000000     1.934000000
O     0.203000000     2.673000000     4.283000000
H     1.143000000     2.846000000     4.233000000
H    -0.159000000     3.446000000     4.716000000
O    -3.507000000     3.732000000     3.518000000
H    -3.841000000     3.047000000     4.097000000
H    -3.319000000     3.281000000     2.696000000
O     3.059000000    -1.754000000     2.532000000
H     2.673000000    -0.943000000     2.202000000
H     3.129000000    -1.618000000     3.477000000
O    -5.212000000    -3.397000000    -0.272000000
H    -4.545000000    -3.762000000    -0.852000000
H    -5.132000000    -2.449000000    -0.381000000
O     2.463000000    -2.408000000    -7.037000000
H     3.291000000    -2.057000000    -6.709000000
H     1.918000000    -2.505000000    -6.256000000
O    -0.560000000     0.444000000    -4.304000000
H    -0.951000000     0.090000000    -5.103000000
H    -1.284000000     0.475000000    -3.678000000
O     5.367000000    -3.280000000     0.860000000
H     4.796000000    -3.371000000     0.097000000
H     4.812000000    -2.876000000     1.527000000
O     7.543000000    -2.059000000    -1.680000000
H     7.303000000    -1.714000000    -0.820000000
H     8.413000000    -1.696000000    -1.849000000
O     2.273000000     3.544000000     0.115000000
H     1.549000000     3.485000000     0.739000000
H     2.937000000     4.063000000     0.567000000
O     6.029000000     2.629000000    -3.224000000
H     5.162000000     2.425000000    -2.875000000
H     5.873000000     2.848000000    -4.142000000
O     1.451000000    -1.639000000    -4.534000000
H     1.942000000    -0.823000000    -4.627000000
H     0.571000000    -1.362000000    -4.280000000
O     6.058000000    -0.321000000    -0.086000000
H     5.212000000     0.127000000    -0.055000000
H     6.420000000    -0.209000000     0.793000000
O    -0.221000000    -4.612000000    -3.378000000
H     0.342000000    -4.356000000    -2.647000000
H    -0.930000000    -5.110000000    -2.972000000
O     3.112000000    -3.375000000    -3.660000000
H     3.899000000    -2.891000000    -3.908000000
H     2.389000000    -2.847000000    -3.997000000
O     2.661000000    -1.150000000     5.159000000
H     1.704000000    -1.134000000     5.180000000
H     2.907000000    -1.733000000     5.877000000
O    -1.399000000     5.196000000     4.690000000
H    -1.187000000     5.858000000     4.032000000
H    -2.042000000     4.630000000     4.262000000
O    -4.972000000     1.821000000    -2.193000000
H    -4.868000000     2.736000000    -1.932000000
H    -5.765000000     1.812000000    -2.728000000
O    -0.540000000    -5.743000000     3.294000000
H    -0.018000000    -6.343000000     2.762000000
H    -1.420000000    -6.119000000     3.285000000
O     0.023000000    -0.038000000     4.051000000
H    -0.147000000     0.897000000     4.171000000
H    -0.834000000    -0.452000000     4.150000000
O    -7.274000000    -2.160000000     2.225000000
H    -6.929000000    -1.963000000     3.096000000
H    -7.632000000    -1.328000000     1.915000000
O    -1.932000000     5.824000000     0.318000000
H    -1.977000000     6.031000000     1.252000000
H    -1.054000000     5.464000000     0.194000000
O     3.881000000     1.724000000    -1.750000000
H     3.083000000     1.977000000    -1.285000000
H     4.503000000     1.505000000    -1.056000000
O     3.538000000    -4.153000000    -1.141000000
H     3.255000000    -3.782000000    -1.977000000
H     3.351000000    -5.089000000    -1.220000000
O     0.297000000     3.052000000    -3.907000000
H    -0.649000000     3.178000000    -3.981000000
H     0.406000000     2.106000000    -3.810000000
O     2.270000000    -4.149000000     4.005000000
H     1.386000000    -3.848000000     4.216000000
H     2.549000000    -3.584000000     3.284000000
O     1.564000000     5.097000000    -2.117000000
H     1.541000000     4.490000000    -1.377000000
H     1.409000000     4.547000000    -2.884000000
O     4.657000000     1.785000000     1.650000000
H     4.782000000     1.903000000     2.592000000
H     3.778000000     1.414000000     1.570000000
O    -4.158000000     6.398000000     3.525000000
H    -4.275000000     5.526000000     3.902000000
H    -5.047000000     6.699000000     3.337000000
O    -2.625000000     3.652000000    -3.761000000
H    -2.501000000     4.566000000    -4.017000000
H    -2.724000000     3.682000000    -2.809000000
O    -3.197000000     3.983000000    -1.072000000
H    -2.685000000     4.653000000    -0.618000000
H    -3.129000000     3.209000000    -0.513000000
O    -5.542000000     3.995000000     0.732000000
H    -5.101000000     4.390000000     1.484000000
H    -5.634000000     3.072000000     0.966000000
O     2.082000000     0.713000000     1.803000000
H     1.410000000     0.651000000     2.481000000
H     1.597000000     0.657000000     0.979000000
O     6.128000000    -0.887000000     2.633000000
H     5.387000000    -0.294000000     2.757000000
H     5.991000000    -1.581000000     3.279000000
O     7.766000000     1.450000000    -1.607000000
H     7.101000000     1.919000000    -2.111000000
H     7.275000000     0.789000000    -1.119000000
O     3.386000000     0.675000000    -7.168000000
H     3.814000000     0.289000000    -6.404000000
H     2.535000000     0.969000000    -6.843000000
O     4.003000000    -5.879000000    -4.141000000
H     3.450000000    -6.168000000    -3.415000000
H     3.917000000    -4.926000000    -4.144000000
O    -2.537000000    -2.584000000    -1.255000000
H    -2.797000000    -1.815000000    -1.762000000
H    -1.679000000    -2.357000000    -0.898000000
O    -4.300000000    -2.109000000     2.378000000
H    -4.832000000    -2.337000000     1.616000000
H    -4.029000000    -1.204000000     2.220000000
O    -4.072000000    -4.213000000     3.961000000
H    -3.573000000    -4.803000000     3.397000000
H    -4.163000000    -3.410000000     3.447000000
O    -3.597000000     1.653000000     5.189000000
H    -3.637000000     1.185000000     6.023000000
H    -3.182000000     1.035000000     4.587000000
O    -2.489000000    -0.790000000     4.398000000
H    -2.991000000    -1.136000000     5.136000000
H    -3.110000000    -0.778000000     3.670000000
O    -0.597000000    -3.401000000     4.502000000
H    -0.793000000    -4.195000000     4.004000000
H    -1.417000000    -2.908000000     4.499000000
O    -4.838000000    -0.746000000    -0.708000000
H    -4.263000000    -0.417000000    -0.018000000
H    -4.908000000    -0.020000000    -1.328000000
O     4.105000000     0.262000000    -4.291000000
H     5.058000000     0.206000000    -4.226000000
H     3.843000000     0.788000000    -3.535000000
