158
-3028.62184
C    -1.232000000     0.753000000     0.200000000
H    -2.087000000     1.406000000     0.358000000
C     0.038000000     1.009000000     0.829000000
H     0.208000000     1.891000000     1.441000000
C     1.120000000     0.212000000     0.538000000
H     2.062000000     0.260000000     1.094000000
C     0.954000000    -0.897000000    -0.310000000
H     1.800000000    -1.524000000    -0.578000000
C    -0.303000000    -1.173000000    -0.915000000
H    -0.401000000    -2.018000000    -1.593000000
C    -1.395000000    -0.333000000    -0.714000000
C    -2.767000000    -0.597000000    -1.310000000
O    -3.727000000     0.158000000    -1.062000000
O    -2.952000000    -1.544000000    -2.039000000
O    -4.568000000    -0.434000000     1.410000000
H    -4.655000000    -0.310000000     0.465000000
H    -4.010000000     0.289000000     1.697000000
O     2.399000000    -2.974000000     2.971000000
H     1.740000000    -2.295000000     2.826000000
H     2.910000000    -2.989000000     2.162000000
O     6.307000000     1.462000000     4.254000000
H     5.844000000     2.260000000     4.508000000
H     6.551000000     1.607000000     3.340000000
O    -2.241000000     5.834000000    -2.529000000
H    -2.402000000     5.305000000    -3.311000000
H    -2.708000000     5.375000000    -1.830000000
O    -1.866000000    -3.956000000     3.065000000
H    -2.144000000    -3.952000000     2.149000000
H    -1.031000000    -4.424000000     3.060000000
O    -2.559000000     2.454000000     4.738000000
H    -2.765000000     1.520000000     4.710000000
H    -2.079000000     2.569000000     5.559000000
O    -3.059000000    -3.235000000     0.316000000
H    -2.923000000    -2.885000000    -0.565000000
H    -4.007000000    -3.192000000     0.446000000
O     1.913000000    -4.868000000    -0.163000000
H     2.205000000    -5.774000000    -0.068000000
H     1.049000000    -4.935000000    -0.568000000
O     2.084000000     0.414000000    -4.066000000
H     1.340000000     0.285000000    -3.479000000
H     2.466000000    -0.459000000    -4.165000000
O    -2.964000000    -0.026000000     3.758000000
H    -2.537000000    -0.461000000     3.020000000
H    -2.866000000    -0.639000000     4.487000000
O     4.483000000     4.512000000     0.213000000
H     4.989000000     4.111000000    -0.494000000
H     3.900000000     5.128000000    -0.230000000
O    -3.029000000     2.978000000    -1.335000000
H    -3.253000000     2.054000000    -1.442000000
H    -3.852000000     3.443000000    -1.486000000
O     5.301000000     5.884000000     2.455000000
H     4.548000000     5.774000000     3.036000000
H     5.043000000     5.448000000     1.643000000
O    -5.652000000    -2.579000000    -2.111000000
H    -4.919000000    -2.120000000    -1.702000000
H    -6.091000000    -3.024000000    -1.386000000
O     2.216000000    -3.560000000     5.774000000
H     2.263000000    -3.305000000     4.853000000
H     1.530000000    -4.227000000     5.803000000
O    -0.197000000    -0.354000000     5.245000000
H    -0.327000000    -0.580000000     4.324000000
H     0.414000000     0.382000000     5.227000000
O     0.386000000     5.522000000     2.794000000
H    -0.285000000     4.844000000     2.876000000
H     0.640000000     5.498000000     1.871000000
O     1.390000000     3.666000000     6.277000000
H     1.544000000     3.415000000     7.188000000
H     1.544000000     2.863000000     5.779000000
O    -5.040000000     3.430000000    -4.813000000
H    -5.563000000     4.049000000    -4.304000000
H    -5.126000000     2.601000000    -4.342000000
O    -2.469000000    -5.983000000    -0.097000000
H    -1.695000000    -5.905000000    -0.654000000
H    -2.679000000    -5.082000000     0.150000000
O    -0.365000000    -5.737000000    -1.675000000
H     0.343000000    -6.243000000    -2.074000000
H    -0.598000000    -5.087000000    -2.338000000
O     2.553000000     5.866000000    -1.877000000
H     2.336000000     4.939000000    -1.972000000
H     3.054000000     6.077000000    -2.665000000
O    -7.457000000    -0.846000000     1.672000000
H    -6.560000000    -0.563000000     1.494000000
H    -7.557000000    -0.745000000     2.618000000
O    -4.142000000    -2.074000000    -4.408000000
H    -3.570000000    -1.768000000    -3.704000000
H    -4.893000000    -2.458000000    -3.956000000
O     3.944000000    -2.997000000    -0.802000000
H     3.356000000    -3.732000000    -0.629000000
H     4.403000000    -3.242000000    -1.606000000
O    -3.562000000     5.977000000     0.323000000
H    -4.303000000     5.737000000    -0.233000000
H    -3.121000000     5.147000000     0.505000000
O     6.986000000    -2.546000000     2.267000000
H     6.152000000    -2.351000000     1.839000000
H     7.562000000    -1.827000000     2.006000000
O     3.270000000     2.426000000     2.421000000
H     3.704000000     1.676000000     2.016000000
H     3.416000000     3.147000000     1.809000000
O    -3.961000000    -5.728000000    -2.964000000
H    -4.114000000    -6.649000000    -3.178000000
H    -4.110000000    -5.673000000    -2.020000000
O     2.271000000     1.374000000     4.742000000
H     3.078000000     0.921000000     4.989000000
H     2.510000000     1.882000000     3.967000000
O    -7.176000000    -0.288000000    -3.047000000
H    -6.794000000    -1.145000000    -2.854000000
H    -8.067000000    -0.483000000    -3.337000000
O    -2.357000000    -1.515000000    -6.445000000
H    -2.827000000    -1.826000000    -5.671000000
H    -2.963000000    -1.667000000    -7.170000000
O    -1.748000000    -3.795000000    -3.163000000
H    -2.489000000    -4.376000000    -3.332000000
H    -2.148000000    -2.953000000    -2.946000000
O     4.603000000    -1.459000000     1.122000000
H     4.754000000    -0.580000000     0.776000000
H     4.202000000    -1.937000000     0.396000000
O    -5.897000000    -3.966000000     0.258000000
H    -5.606000000    -4.851000000     0.040000000
H    -6.600000000    -4.095000000     0.895000000
O    -0.542000000    -1.358000000     2.588000000
H    -0.810000000    -2.276000000     2.560000000
H    -0.406000000    -1.120000000     1.671000000
O     4.494000000    -0.435000000     4.999000000
H     4.256000000    -0.990000000     4.257000000
H     5.005000000     0.276000000     4.613000000
O     4.823000000     0.966000000    -0.713000000
H     4.940000000     1.747000000    -1.254000000
H     5.626000000     0.461000000    -0.843000000
O     1.800000000     3.129000000    -0.980000000
H     0.876000000     3.135000000    -1.229000000
H     2.180000000     2.412000000    -1.488000000
O     0.463000000    -5.195000000     2.425000000
H     0.938000000    -5.882000000     2.893000000
H     1.149000000    -4.648000000     2.042000000
O    -4.758000000     1.066000000    -3.381000000
H    -5.425000000     0.400000000    -3.548000000
H    -4.411000000     0.846000000    -2.516000000
O     6.781000000     1.878000000     1.626000000
H     7.322000000     2.186000000     0.898000000
H     5.882000000     1.968000000     1.311000000
O    -2.902000000     1.214000000    -5.447000000
H    -3.672000000     1.374000000    -4.901000000
H    -2.924000000     0.273000000    -5.621000000
O    -0.580000000     3.335000000    -2.338000000
H    -1.327000000     3.062000000    -1.805000000
H    -0.938000000     3.997000000    -2.929000000
O     0.201000000    -2.527000000    -4.585000000
H     0.041000000    -3.169000000    -5.277000000
H    -0.478000000    -2.703000000    -3.934000000
O     3.115000000    -2.083000000    -4.056000000
H     3.636000000    -2.842000000    -3.792000000
H     2.257000000    -2.448000000    -4.276000000
O    -1.890000000     3.719000000     2.366000000
H    -1.933000000     2.986000000     1.752000000
H    -2.104000000     3.333000000     3.215000000
O    -4.669000000    -2.577000000     3.329000000
H    -4.177000000    -2.242000000     2.580000000
H    -5.587000000    -2.443000000     3.093000000
