158
-3018.95318
C    -0.763000000     1.109000000    -0.592000000
H    -1.185000000     1.936000000    -1.156000000
C     0.277000000     0.357000000    -1.191000000
H     0.651000000     0.670000000    -2.162000000
C     0.907000000    -0.672000000    -0.528000000
H     1.773000000    -1.083000000    -1.138000000
C     0.445000000    -1.032000000     0.703000000
H     0.905000000    -1.893000000     1.183000000
C    -0.585000000    -0.289000000     1.334000000
H    -0.918000000    -0.562000000     2.332000000
C    -1.221000000     0.731000000     0.653000000
C    -2.224000000     1.628000000     1.354000000
O    -2.619000000     2.622000000     0.791000000
O    -2.672000000     1.277000000     2.381000000
O    -4.044000000     0.216000000    -3.182000000
H    -4.897000000    -0.199000000    -3.312000000
H    -4.204000000     0.891000000    -2.521000000
O    -5.203000000     2.612000000     3.493000000
H    -4.993000000     2.508000000     4.421000000
H    -4.579000000     2.045000000     3.040000000
O    -0.264000000    -1.161000000     7.219000000
H    -0.265000000    -0.290000000     6.822000000
H    -0.823000000    -1.686000000     6.645000000
O    -0.991000000     6.986000000     3.086000000
H    -1.428000000     7.094000000     3.931000000
H    -1.568000000     6.406000000     2.590000000
O     0.383000000    -2.337000000    -3.912000000
H     0.913000000    -1.540000000    -3.904000000
H    -0.497000000    -2.038000000    -4.143000000
O    -0.613000000    -2.133000000    -6.871000000
H    -0.544000000    -1.202000000    -7.084000000
H    -0.371000000    -2.185000000    -5.946000000
O     0.587000000     3.390000000     2.383000000
H     0.854000000     3.929000000     1.639000000
H    -0.350000000     3.561000000     2.479000000
O    -2.404000000    -4.056000000    -0.979000000
H    -3.330000000    -4.135000000    -0.749000000
H    -2.277000000    -3.123000000    -1.148000000
O     1.582000000    -6.638000000    -1.234000000
H     1.201000000    -6.676000000    -2.112000000
H     0.830000000    -6.676000000    -0.644000000
O    -1.049000000    -4.917000000    -3.228000000
H    -1.439000000    -4.798000000    -2.362000000
H    -0.547000000    -4.116000000    -3.377000000
O    -2.353000000     4.701000000     2.612000000
H    -2.795000000     4.612000000     3.457000000
H    -2.744000000     4.019000000     2.065000000
O     3.534000000    -1.453000000     1.565000000
H     3.055000000    -0.696000000     1.228000000
H     4.337000000    -1.083000000     1.933000000
O     5.584000000     0.394000000    -2.175000000
H     5.764000000     1.230000000    -2.607000000
H     6.433000000     0.113000000    -1.834000000
O     3.759000000    -1.675000000    -6.793000000
H     3.428000000    -2.503000000    -6.444000000
H     3.158000000    -1.013000000    -6.451000000
O    -1.561000000    -0.742000000    -4.725000000
H    -1.259000000     0.166000000    -4.762000000
H    -2.483000000    -0.678000000    -4.477000000
O     2.658000000    -1.413000000     4.888000000
H     1.937000000    -0.875000000     4.561000000
H     2.687000000    -1.230000000     5.827000000
O     5.094000000    -3.612000000     0.570000000
H     4.477000000    -4.333000000     0.447000000
H     4.548000000    -2.873000000     0.841000000
O     2.123000000    -6.017000000     3.816000000
H     2.296000000    -6.631000000     3.102000000
H     1.684000000    -5.278000000     3.395000000
O    -7.053000000     5.324000000     1.402000000
H    -6.859000000     5.473000000     2.328000000
H    -6.210000000     5.084000000     1.017000000
O     1.999000000     4.839000000     0.180000000
H     2.281000000     5.322000000     0.957000000
H     1.384000000     5.427000000    -0.258000000
O     2.061000000     0.073000000    -5.473000000
H     2.562000000     0.385000000    -4.719000000
H     1.604000000     0.849000000    -5.795000000
O     7.217000000    -1.725000000    -0.784000000
H     7.832000000    -1.268000000    -0.211000000
H     6.678000000    -2.247000000    -0.189000000
O     2.736000000    -3.869000000    -3.560000000
H     3.502000000    -3.329000000    -3.367000000
H     1.998000000    -3.260000000    -3.528000000
O     4.907000000    -2.285000000    -2.722000000
H     5.095000000    -1.349000000    -2.660000000
H     5.768000000    -2.703000000    -2.715000000
O    -3.046000000     5.085000000    -2.436000000
H    -2.837000000     4.904000000    -3.353000000
H    -3.484000000     5.936000000    -2.454000000
O    -6.789000000     4.154000000    -1.556000000
H    -6.555000000     4.373000000    -2.457000000
H    -5.999000000     4.346000000    -1.049000000
O    -5.909000000     1.367000000    -1.348000000
H    -5.019000000     1.720000000    -1.349000000
H    -6.453000000     2.091000000    -1.659000000
O    -1.256000000    -4.418000000     3.204000000
H    -0.543000000    -4.200000000     2.603000000
H    -2.003000000    -4.600000000     2.633000000
O     0.666000000     0.790000000     4.426000000
H     0.553000000     1.573000000     3.887000000
H     0.824000000     1.127000000     5.308000000
O    -7.488000000     1.567000000     2.051000000
H    -7.499000000     0.833000000     2.666000000
H    -6.709000000     2.069000000     2.292000000
O     2.451000000     3.355000000    -2.182000000
H     2.060000000     3.870000000    -2.888000000
H     2.024000000     3.675000000    -1.387000000
O     3.105000000    -5.432000000     0.446000000
H     3.525000000    -6.129000000     0.951000000
H     2.506000000    -5.891000000    -0.143000000
O     0.994000000     4.460000000    -4.149000000
H     0.048000000     4.524000000    -4.275000000
H     1.355000000     4.472000000    -5.035000000
O     1.980000000    -3.748000000     2.319000000
H     2.346000000    -2.920000000     2.630000000
H     2.599000000    -4.049000000     1.654000000
O     3.062000000    -4.462000000    -6.258000000
H     2.726000000    -4.292000000    -5.378000000
H     2.381000000    -4.989000000    -6.676000000
O    -4.418000000     3.554000000    -4.599000000
H    -4.975000000     2.920000000    -5.051000000
H    -3.935000000     3.033000000    -3.956000000
O    -0.024000000     6.583000000    -1.339000000
H    -0.317000000     7.464000000    -1.108000000
H    -0.676000000     6.003000000    -0.946000000
O    -3.623000000     2.422000000    -1.627000000
H    -3.519000000     3.292000000    -2.013000000
H    -3.271000000     2.509000000    -0.741000000
O    -4.537000000     4.638000000     0.124000000
H    -4.380000000     5.493000000     0.525000000
H    -3.708000000     4.170000000     0.224000000
O     2.558000000     1.044000000     1.181000000
H     2.362000000     1.592000000     0.421000000
H     1.716000000     0.660000000     1.423000000
O     5.117000000    -5.702000000    -3.060000000
H     5.038000000    -6.244000000    -3.845000000
H     4.248000000    -5.317000000    -2.946000000
O    -2.407000000    -1.393000000    -1.445000000
H    -2.751000000    -0.851000000    -2.155000000
H    -1.550000000    -1.014000000    -1.248000000
O    -4.721000000    -2.352000000     3.585000000
H    -4.522000000    -2.347000000     2.649000000
H    -4.158000000    -1.671000000     3.954000000
O    -3.456000000     3.685000000     5.998000000
H    -3.974000000     3.680000000     6.803000000
H    -2.601000000     3.346000000     6.262000000
O    -3.047000000    -0.346000000     4.388000000
H    -3.203000000     0.216000000     5.147000000
H    -2.979000000     0.260000000     3.650000000
O    -1.783000000    -2.681000000     5.151000000
H    -1.460000000    -3.316000000     4.512000000
H    -2.257000000    -2.035000000     4.628000000
O    -3.536000000    -1.254000000     1.185000000
H    -3.424000000    -0.364000000     1.520000000
H    -2.669000000    -1.499000000     0.863000000
O     3.073000000     0.561000000    -3.143000000
H     3.813000000     0.335000000    -2.579000000
H     2.741000000     1.384000000    -2.784000000
