158
-3060.56106
C    -0.639000000     0.993000000    -0.847000000
H    -0.938000000     1.867000000    -1.420000000
C     0.601000000     0.374000000    -1.170000000
H     1.180000000     0.702000000    -2.029000000
C     1.058000000    -0.582000000    -0.276000000
H     1.963000000    -1.088000000    -0.583000000
C     0.351000000    -0.953000000     0.826000000
H     0.791000000    -1.683000000     1.501000000
C    -0.902000000    -0.374000000     1.122000000
H    -1.405000000    -0.600000000     2.059000000
C    -1.381000000     0.677000000     0.321000000
C    -2.703000000     1.352000000     0.635000000
O    -3.216000000     1.949000000    -0.284000000
O    -3.158000000     1.406000000     1.775000000
O    -6.539000000     2.642000000    -3.384000000
H    -6.267000000     2.229000000    -4.203000000
H    -5.738000000     3.033000000    -3.035000000
O    -4.378000000     3.445000000     2.935000000
H    -4.358000000     3.083000000     3.821000000
H    -3.850000000     2.838000000     2.416000000
O    -1.635000000     1.354000000     4.217000000
H    -2.099000000     1.123000000     3.412000000
H    -1.065000000     2.081000000     3.965000000
O     3.316000000    -5.393000000    -2.073000000
H     3.480000000    -6.334000000    -2.012000000
H     2.533000000    -5.321000000    -2.618000000
O    -0.518000000     1.061000000    -5.410000000
H    -0.289000000     1.840000000    -4.904000000
H    -1.364000000     1.271000000    -5.804000000
O     0.465000000    -3.176000000     4.861000000
H    -0.339000000    -2.707000000     4.639000000
H     1.123000000    -2.488000000     4.965000000
O     0.890000000    -5.287000000    -3.314000000
H     0.654000000    -4.438000000    -3.687000000
H     0.545000000    -5.926000000    -3.938000000
O     3.069000000    -2.989000000    -4.230000000
H     3.346000000    -2.073000000    -4.246000000
H     2.118000000    -2.954000000    -4.331000000
O    -2.360000000     4.962000000     0.526000000
H    -2.890000000     5.639000000     0.947000000
H    -2.842000000     4.149000000     0.681000000
O     4.206000000     1.871000000    -1.104000000
H     3.843000000     2.063000000    -1.968000000
H     3.611000000     2.306000000    -0.493000000
O    -3.083000000     0.639000000    -2.767000000
H    -2.876000000     1.301000000    -2.107000000
H    -3.968000000     0.349000000    -2.545000000
O     1.859000000    -0.479000000    -6.030000000
H     1.646000000    -0.840000000    -6.891000000
H     1.030000000    -0.125000000    -5.707000000
O     5.932000000    -4.865000000    -2.471000000
H     5.005000000    -5.092000000    -2.393000000
H     5.984000000    -4.341000000    -3.270000000
O     2.288000000     1.715000000     3.997000000
H     2.765000000     2.356000000     3.471000000
H     1.376000000     2.004000000     3.958000000
O     4.577000000    -0.850000000    -0.021000000
H     4.724000000    -0.011000000    -0.459000000
H     5.038000000    -1.488000000    -0.565000000
O    -1.796000000    -6.026000000     1.463000000
H    -1.114000000    -5.545000000     0.993000000
H    -1.517000000    -6.002000000     2.379000000
O     0.224000000     3.691000000    -4.318000000
H    -0.597000000     4.180000000    -4.382000000
H     0.639000000     4.023000000    -3.522000000
O     5.892000000     2.464000000     1.310000000
H     6.574000000     3.071000000     1.023000000
H     5.451000000     2.200000000     0.503000000
O    -4.763000000    -1.535000000    -0.816000000
H    -4.982000000    -0.719000000    -0.366000000
H    -5.607000000    -1.887000000    -1.099000000
O     6.154000000    -2.726000000    -4.322000000
H     6.336000000    -1.916000000    -4.799000000
H     5.201000000    -2.809000000    -4.347000000
O     6.551000000    -2.240000000    -1.330000000
H     6.394000000    -1.595000000    -2.020000000
H     6.366000000    -3.083000000    -1.744000000
O     5.579000000    -1.786000000     3.550000000
H     6.052000000    -0.954000000     3.523000000
H     5.041000000    -1.781000000     2.758000000
O     6.295000000     0.178000000    -2.875000000
H     5.491000000     0.097000000    -3.388000000
H     6.171000000     0.975000000    -2.360000000
O    -3.270000000    -3.395000000     0.834000000
H    -4.224000000    -3.378000000     0.759000000
H    -2.965000000    -2.802000000     0.147000000
O    -0.089000000     3.568000000     3.821000000
H    -0.637000000     4.288000000     3.508000000
H     0.002000000     3.729000000     4.761000000
O    -5.804000000     0.937000000    -0.082000000
H    -6.071000000     0.861000000     0.834000000
H    -5.092000000     1.577000000    -0.071000000
O     2.397000000    -4.607000000     0.664000000
H     2.953000000    -4.788000000    -0.094000000
H     1.505000000    -4.633000000     0.318000000
O    -0.030000000    -4.304000000    -0.627000000
H    -0.631000000    -3.559000000    -0.653000000
H     0.058000000    -4.573000000    -1.541000000
O     1.987000000    -0.910000000     4.122000000
H     2.246000000    -1.103000000     3.221000000
H     2.300000000    -0.019000000     4.276000000
O     3.144000000    -2.000000000     1.968000000
H     2.915000000    -2.886000000     1.688000000
H     3.342000000    -1.535000000     1.155000000
O     0.391000000     4.128000000     0.740000000
H     0.046000000     3.574000000     1.440000000
H    -0.383000000     4.538000000     0.355000000
O    -4.107000000     3.700000000    -2.445000000
H    -3.334000000     4.256000000    -2.550000000
H    -3.938000000     3.205000000    -1.643000000
O     3.763000000    -0.207000000    -4.365000000
H     3.212000000    -0.276000000    -5.145000000
H     3.695000000     0.711000000    -4.104000000
O    -5.572000000     6.033000000    -2.269000000
H    -5.286000000     5.163000000    -2.548000000
H    -5.808000000     5.924000000    -1.348000000
O     2.817000000     2.307000000    -3.449000000
H     1.919000000     2.606000000    -3.591000000
H     3.343000000     2.840000000    -4.045000000
O     3.412000000    -5.684000000     2.991000000
H     2.961000000    -5.267000000     2.257000000
H     3.250000000    -5.103000000     3.734000000
O     0.303000000    -3.098000000    -4.751000000
H    -0.187000000    -2.307000000    -4.525000000
H    -0.288000000    -3.591000000    -5.321000000
O    -7.033000000     3.591000000     2.198000000
H    -7.213000000     3.877000000     3.093000000
H    -6.098000000     3.389000000     2.194000000
O     7.872000000    -0.059000000    -0.310000000
H     7.957000000     0.460000000    -1.109000000
H     7.253000000    -0.752000000    -0.538000000
O    -2.131000000    -1.075000000     6.135000000
H    -1.661000000    -0.378000000     5.676000000
H    -2.045000000    -0.850000000     7.062000000
O    -1.517000000    -1.060000000    -4.242000000
H    -2.001000000    -0.507000000    -3.628000000
H    -0.893000000    -0.466000000    -4.659000000
O    -1.420000000    -2.298000000    -1.705000000
H    -0.966000000    -1.541000000    -1.334000000
H    -1.343000000    -2.182000000    -2.652000000
O     1.206000000     4.387000000    -1.945000000
H     1.811000000     5.128000000    -1.896000000
H     1.110000000     4.097000000    -1.038000000
O    -4.297000000     1.260000000     5.248000000
H    -4.778000000     1.655000000     5.974000000
H    -3.388000000     1.525000000     5.389000000
O    -7.073000000    -0.306000000     2.376000000
H    -7.387000000    -1.201000000     2.251000000
H    -6.233000000    -0.408000000     2.824000000
O    -4.080000000    -0.906000000     3.179000000
H    -4.208000000    -0.113000000     3.700000000
H    -3.493000000    -0.636000000     2.473000000
O    -3.126000000    -3.599000000     3.577000000
H    -3.052000000    -3.548000000     2.624000000
H    -3.501000000    -2.757000000     3.834000000
O     3.538000000    -3.213000000     4.755000000
H     4.480000000    -3.048000000     4.742000000
H     3.219000000    -2.849000000     3.929000000
