158
-3042.25269
C    -0.834000000     1.191000000    -0.226000000
H    -1.380000000     2.130000000    -0.251000000
C     0.488000000     1.188000000    -0.437000000
H     1.026000000     2.129000000    -0.519000000
C     1.202000000    -0.020000000    -0.269000000
H     2.317000000     0.030000000    -0.265000000
C     0.564000000    -1.193000000    -0.025000000
H     1.070000000    -2.135000000     0.174000000
C    -0.856000000    -1.151000000     0.107000000
H    -1.405000000    -2.040000000     0.408000000
C    -1.546000000     0.028000000     0.079000000
C    -2.986000000     0.066000000     0.413000000
O    -3.604000000     0.960000000    -0.185000000
O    -3.484000000    -0.881000000     1.035000000
O    -0.552000000     2.958000000    -3.050000000
H    -0.779000000     3.289000000    -3.919000000
H    -0.908000000     2.069000000    -3.032000000
O    -6.229000000    -0.367000000     0.529000000
H    -5.282000000    -0.431000000     0.404000000
H    -6.469000000     0.465000000     0.120000000
O     2.932000000     0.219000000     4.329000000
H     2.001000000     0.389000000     4.186000000
H     3.358000000     0.531000000     3.530000000
O     5.734000000     0.908000000     5.209000000
H     5.493000000     1.827000000     5.088000000
H     5.035000000     0.418000000     4.775000000
O    -0.184000000    -3.657000000     4.004000000
H    -0.977000000    -3.607000000     3.470000000
H     0.248000000    -4.461000000     3.716000000
O     2.218000000     3.039000000    -3.650000000
H     1.453000000     2.700000000    -3.186000000
H     2.493000000     2.318000000    -4.218000000
O    -2.501000000    -3.315000000     2.318000000
H    -2.795000000    -2.412000000     2.199000000
H    -3.134000000    -3.695000000     2.926000000
O     4.664000000     1.662000000    -4.323000000
H     4.971000000     2.537000000    -4.084000000
H     4.701000000     1.164000000    -3.507000000
O    -2.112000000     0.218000000    -3.889000000
H    -1.440000000    -0.455000000    -3.777000000
H    -2.676000000     0.123000000    -3.122000000
O    -3.348000000     2.367000000     2.072000000
H    -3.461000000     1.968000000     1.209000000
H    -3.994000000     3.073000000     2.096000000
O     6.794000000     2.957000000    -0.662000000
H     6.617000000     3.453000000    -1.461000000
H     5.941000000     2.607000000    -0.403000000
O    -3.854000000     2.527000000    -2.561000000
H    -3.912000000     2.041000000    -1.738000000
H    -4.158000000     3.408000000    -2.341000000
O    -8.033000000    -2.384000000     0.929000000
H    -8.941000000    -2.129000000     0.769000000
H    -7.567000000    -1.555000000     1.040000000
O     4.834000000    -1.528000000     0.527000000
H     4.311000000    -2.188000000     0.071000000
H     5.518000000    -2.029000000     0.971000000
O    -1.691000000    -4.631000000     0.134000000
H    -2.342000000    -4.330000000    -0.500000000
H    -1.852000000    -4.099000000     0.914000000
O    -0.459000000    -6.997000000     0.485000000
H    -0.782000000    -6.096000000     0.455000000
H    -0.305000000    -7.226000000    -0.432000000
O    -4.889000000     4.680000000     2.261000000
H    -4.578000000     5.338000000     1.639000000
H    -5.832000000     4.831000000     2.319000000
O     3.054000000     4.805000000    -1.116000000
H     2.245000000     4.813000000    -0.605000000
H     2.774000000     4.578000000    -2.003000000
O    -6.432000000     0.448000000    -3.235000000
H    -5.890000000    -0.339000000    -3.282000000
H    -5.985000000     1.010000000    -2.602000000
O     3.508000000    -3.782000000    -0.725000000
H     2.894000000    -3.924000000    -1.445000000
H     3.991000000    -4.606000000    -0.656000000
O     6.470000000    -3.350000000     1.626000000
H     7.265000000    -3.159000000     2.124000000
H     6.638000000    -4.202000000     1.224000000
O     2.444000000    -4.608000000    -3.200000000
H     3.058000000    -5.339000000    -3.274000000
H     1.802000000    -4.764000000    -3.892000000
O     0.544000000     6.477000000    -2.241000000
H    -0.229000000     6.145000000    -1.784000000
H     1.176000000     6.655000000    -1.544000000
O     4.808000000    -2.222000000     3.805000000
H     4.097000000    -1.714000000     3.415000000
H     4.844000000    -3.024000000     3.283000000
O    -8.446000000     1.602000000     1.492000000
H    -9.353000000     1.410000000     1.256000000
H    -7.990000000     1.672000000     0.653000000
O    -5.750000000    -4.077000000     0.894000000
H    -6.184000000    -4.896000000     0.655000000
H    -6.458000000    -3.434000000     0.939000000
O    -0.823000000     3.072000000     2.685000000
H    -0.885000000     3.097000000     3.639000000
H    -1.677000000     2.749000000     2.398000000
O    -3.910000000    -2.847000000    -0.676000000
H    -4.556000000    -3.417000000    -0.261000000
H    -3.829000000    -2.102000000    -0.081000000
O     1.170000000     6.685000000     0.281000000
H     0.302000000     6.891000000     0.627000000
H     1.445000000     5.910000000     0.770000000
O     3.608000000    -4.580000000     2.575000000
H     3.545000000    -4.216000000     1.692000000
H     2.870000000    -5.185000000     2.639000000
O     4.000000000     2.277000000    -0.194000000
H     3.679000000     2.134000000    -1.084000000
H     3.873000000     3.213000000    -0.041000000
O    -5.967000000    -3.223000000     3.592000000
H    -5.787000000    -3.570000000     2.719000000
H    -6.694000000    -3.754000000     3.917000000
O     0.604000000     0.928000000     2.842000000
H     0.691000000     0.823000000     1.894000000
H     0.144000000     1.761000000     2.949000000
O    -3.757000000     2.198000000    -5.224000000
H    -3.613000000     2.472000000    -4.318000000
H    -3.382000000     1.319000000    -5.270000000
O     4.403000000     0.742000000     2.171000000
H     4.293000000     1.313000000     1.410000000
H     4.381000000    -0.144000000     1.810000000
O     1.346000000     4.154000000     1.316000000
H     0.494000000     3.732000000     1.418000000
H     1.664000000     4.271000000     2.211000000
O     4.948000000     0.050000000    -2.068000000
H     4.760000000    -0.096000000    -1.141000000
H     5.890000000    -0.100000000    -2.147000000
O    -1.834000000     1.079000000     5.047000000
H    -1.043000000     1.176000000     4.516000000
H    -2.345000000     0.408000000     4.595000000
O    -3.282000000    -6.469000000     1.913000000
H    -3.891000000    -6.062000000     2.529000000
H    -2.851000000    -5.732000000     1.481000000
O     2.071000000     5.598000000    -4.217000000
H     1.503000000     5.877000000    -3.499000000
H     2.195000000     4.660000000    -4.074000000
O    -1.811000000     4.861000000    -1.643000000
H    -2.745000000     4.976000000    -1.819000000
H    -1.560000000     4.102000000    -2.169000000
O    -4.876000000    -1.699000000    -3.155000000
H    -4.650000000    -2.453000000    -3.701000000
H    -4.593000000    -1.948000000    -2.275000000
O     0.458000000    -1.548000000    -3.940000000
H     0.878000000    -1.598000000    -3.082000000
H     0.389000000    -2.459000000    -4.226000000
O    -1.686000000     6.720000000     0.745000000
H    -1.784000000     6.124000000     0.002000000
H    -2.127000000     6.276000000     1.469000000
O    -4.733000000     2.093000000     4.662000000
H    -3.821000000     2.368000000     4.755000000
H    -4.695000000     1.331000000     4.084000000
O    -7.000000000     2.289000000    -0.797000000
H    -6.931000000     3.240000000    -0.873000000
H    -7.693000000     2.049000000    -1.413000000
O     7.239000000    -0.952000000     3.255000000
H     7.798000000    -0.982000000     4.031000000
H     6.385000000    -1.254000000     3.564000000
O    -4.278000000    -0.726000000     3.535000000
H    -4.989000000    -1.337000000     3.726000000
H    -4.084000000    -0.866000000     2.608000000
