158
-3002.72621
C    -0.822000000     1.194000000    -0.410000000
H    -1.342000000     1.982000000    -0.950000000
C     0.271000000     0.659000000    -1.062000000
H     0.647000000     1.202000000    -1.925000000
C     0.920000000    -0.457000000    -0.569000000
H     1.876000000    -0.753000000    -0.986000000
C     0.601000000    -1.030000000     0.632000000
H     1.263000000    -1.805000000     1.009000000
C    -0.531000000    -0.478000000     1.295000000
H    -0.812000000    -0.987000000     2.213000000
C    -1.292000000     0.554000000     0.695000000
C    -2.631000000     0.857000000     1.185000000
O    -3.088000000     1.980000000     0.909000000
O    -3.353000000     0.152000000     1.807000000
O    -2.651000000     2.757000000    -3.165000000
H    -3.266000000     3.022000000    -2.481000000
H    -2.750000000     1.806000000    -3.220000000
O    -7.266000000     2.719000000     4.503000000
H    -7.328000000     2.149000000     5.269000000
H    -6.437000000     2.478000000     4.091000000
O    -4.907000000     1.709000000     3.455000000
H    -4.558000000     1.026000000     2.882000000
H    -4.427000000     2.499000000     3.205000000
O     0.485000000     3.388000000    -4.106000000
H    -0.125000000     3.891000000    -3.565000000
H     0.128000000     2.500000000    -4.108000000
O    -1.872000000     1.306000000    -6.307000000
H    -1.794000000     0.978000000    -7.203000000
H    -1.416000000     0.655000000    -5.774000000
O    -3.696000000    -4.306000000     2.666000000
H    -4.589000000    -4.651000000     2.642000000
H    -3.803000000    -3.381000000     2.885000000
O     4.179000000    -4.219000000    -2.093000000
H     4.173000000    -3.264000000    -2.027000000
H     4.256000000    -4.394000000    -3.031000000
O    -3.053000000    -0.134000000    -3.209000000
H    -2.144000000    -0.273000000    -3.476000000
H    -3.553000000    -0.764000000    -3.727000000
O    -1.021000000     4.215000000     0.543000000
H    -1.896000000     4.601000000     0.500000000
H    -1.178000000     3.276000000     0.642000000
O     3.931000000     2.993000000     1.563000000
H     4.243000000     2.775000000     0.685000000
H     3.033000000     2.662000000     1.587000000
O    -4.327000000     3.247000000    -1.043000000
H    -4.040000000     2.734000000    -0.287000000
H    -4.940000000     3.886000000    -0.680000000
O     0.128000000     0.412000000    -4.330000000
H     0.338000000    -0.333000000    -3.765000000
H     0.789000000     0.381000000    -5.022000000
O     0.044000000     0.586000000     4.646000000
H    -0.396000000    -0.208000000     4.950000000
H    -0.356000000     1.291000000     5.155000000
O     5.185000000    -1.419000000     1.655000000
H     4.637000000    -2.150000000     1.370000000
H     5.178000000    -0.811000000     0.916000000
O    -1.489000000    -5.650000000     1.744000000
H    -2.346000000    -5.301000000     1.990000000
H    -1.257000000    -5.174000000     0.946000000
O    -6.109000000     5.026000000     0.140000000
H    -6.539000000     5.661000000     0.712000000
H    -6.526000000     5.150000000    -0.713000000
O     2.981000000     3.539000000    -2.543000000
H     3.283000000     4.442000000    -2.641000000
H     2.193000000     3.490000000    -3.084000000
O     7.411000000    -3.573000000    -0.344000000
H     6.551000000    -3.792000000     0.016000000
H     7.783000000    -2.954000000     0.284000000
O     4.411000000    -4.102000000     0.773000000
H     4.664000000    -4.971000000     1.086000000
H     4.392000000    -4.187000000    -0.180000000
O     6.000000000     0.134000000    -0.698000000
H     6.473000000     0.851000000    -1.121000000
H     6.683000000    -0.490000000    -0.451000000
O    -0.124000000    -2.380000000    -6.119000000
H    -0.903000000    -2.509000000    -6.659000000
H    -0.372000000    -2.713000000    -5.257000000
O    -0.561000000    -4.009000000    -0.253000000
H    -0.839000000    -3.098000000    -0.165000000
H    -0.044000000    -4.025000000    -1.059000000
O    -2.968000000     6.194000000     1.398000000
H    -3.013000000     6.790000000     0.650000000
H    -3.205000000     6.737000000     2.151000000
O     4.061000000    -1.208000000     4.404000000
H     3.536000000    -2.008000000     4.402000000
H     4.518000000    -1.219000000     3.563000000
O    -6.056000000    -2.405000000    -1.702000000
H    -6.729000000    -3.034000000    -1.441000000
H    -5.770000000    -2.006000000    -0.880000000
O    -5.255000000     0.470000000    -0.398000000
H    -4.457000000     0.618000000     0.110000000
H    -5.445000000     1.318000000    -0.798000000
O     2.629000000     1.211000000    -6.393000000
H     3.060000000     1.023000000    -5.559000000
H     3.289000000     1.004000000    -7.055000000
O    -3.957000000    -1.909000000    -0.007000000
H    -3.758000000    -1.520000000    -0.859000000
H    -3.837000000    -1.193000000     0.617000000
O     0.865000000     6.050000000    -0.619000000
H     0.277000000     5.333000000    -0.378000000
H     0.959000000     6.562000000     0.184000000
O    -4.642000000     1.314000000     6.018000000
H    -4.620000000     1.099000000     5.085000000
H    -4.330000000     0.520000000     6.453000000
O     2.039000000    -3.244000000     3.947000000
H     1.149000000    -2.913000000     3.823000000
H     1.958000000    -4.192000000     3.845000000
O     5.063000000     2.960000000    -0.920000000
H     5.707000000     2.700000000    -1.578000000
H     4.291000000     3.212000000    -1.426000000
O    -6.455000000    -1.156000000     4.476000000
H    -7.053000000    -0.453000000     4.729000000
H    -7.008000000    -1.788000000     4.019000000
O    -3.252000000     4.054000000     2.966000000
H    -3.353000000     4.822000000     2.404000000
H    -2.913000000     3.374000000     2.384000000
O     1.561000000     1.353000000     2.278000000
H     1.062000000     0.996000000     3.012000000
H     1.371000000     0.762000000     1.549000000
O     4.021000000    -1.396000000    -1.830000000
H     4.669000000    -0.838000000    -1.398000000
H     3.715000000    -0.876000000    -2.573000000
O    -0.593000000     3.762000000    -6.478000000
H    -0.321000000     3.610000000    -5.573000000
H    -1.369000000     3.213000000    -6.590000000
O     0.438000000    -4.932000000    -2.850000000
H     1.379000000    -5.098000000    -2.807000000
H     0.111000000    -5.565000000    -3.490000000
O     2.611000000     0.923000000     5.120000000
H     1.694000000     0.647000000     5.098000000
H     3.093000000     0.179000000     4.757000000
O     3.796000000     0.860000000    -3.891000000
H     4.676000000     1.101000000    -4.179000000
H     3.521000000     1.584000000    -3.329000000
O    -1.211000000    -2.021000000     4.641000000
H    -1.179000000    -2.969000000     4.775000000
H    -2.085000000    -1.858000000     4.286000000
O     2.275000000    -4.088000000    -5.406000000
H     1.763000000    -3.286000000    -5.513000000
H     2.403000000    -4.411000000    -6.297000000
O     5.006000000    -2.388000000    -5.282000000
H     4.183000000    -2.858000000    -5.148000000
H     4.778000000    -1.669000000    -5.871000000
O    -2.431000000     5.379000000    -3.633000000
H    -2.396000000     4.422000000    -3.627000000
H    -2.382000000     5.626000000    -2.710000000
O    -0.462000000    -1.761000000    -2.872000000
H    -0.309000000    -1.359000000    -2.017000000
H    -0.420000000    -2.703000000    -2.703000000
O     1.072000000     4.072000000     2.411000000
H     0.444000000     4.051000000     1.689000000
H     1.216000000     3.151000000     2.630000000
O    -3.968000000    -1.798000000     3.589000000
H    -4.889000000    -1.657000000     3.811000000
H    -3.712000000    -1.005000000     3.119000000
O    -7.722000000    -0.897000000     0.563000000
H    -7.219000000    -0.372000000    -0.060000000
H    -7.896000000    -0.301000000     1.292000000
