158
-3019.19957
C    -1.315000000     0.598000000     0.280000000
H    -2.186000000     1.154000000     0.617000000
C    -0.087000000     0.836000000     0.963000000
H    -0.047000000     1.511000000     1.814000000
C     1.118000000     0.318000000     0.467000000
H     2.034000000     0.480000000     0.989000000
C     1.048000000    -0.611000000    -0.548000000
H     1.992000000    -1.018000000    -0.902000000
C    -0.181000000    -0.946000000    -1.111000000
H    -0.008000000    -1.498000000    -2.031000000
C    -1.392000000    -0.362000000    -0.735000000
C    -2.710000000    -0.869000000    -1.280000000
O    -3.688000000    -0.221000000    -1.088000000
O    -2.739000000    -1.780000000    -2.083000000
O    -5.762000000    -1.123000000     0.585000000
H    -5.207000000    -0.613000000    -0.004000000
H    -5.150000000    -1.663000000     1.084000000
O     3.975000000     1.042000000     6.710000000
H     4.671000000     1.451000000     6.196000000
H     3.166000000     1.312000000     6.277000000
O     0.406000000     2.147000000    -2.102000000
H     0.406000000     1.415000000    -1.485000000
H    -0.486000000     2.492000000    -2.064000000
O    -3.372000000    -2.753000000     1.588000000
H    -2.896000000    -2.530000000     2.389000000
H    -3.464000000    -3.706000000     1.623000000
O    -0.312000000    -4.797000000    -3.042000000
H    -0.828000000    -5.594000000    -3.164000000
H    -0.621000000    -4.436000000    -2.211000000
O    -1.192000000     4.729000000     4.480000000
H    -0.728000000     5.149000000     3.755000000
H    -1.488000000     3.892000000     4.122000000
O    -2.259000000    -0.305000000     4.725000000
H    -1.395000000    -0.070000000     5.063000000
H    -2.208000000    -1.249000000     4.572000000
O    -4.269000000     2.349000000    -0.412000000
H    -4.445000000     1.415000000    -0.531000000
H    -4.508000000     2.523000000     0.498000000
O     0.089000000     0.338000000     5.988000000
H     0.851000000    -0.240000000     6.024000000
H     0.457000000     1.212000000     5.860000000
O    -4.285000000    -0.317000000    -5.731000000
H    -4.637000000    -0.296000000    -4.841000000
H    -4.052000000    -1.234000000    -5.875000000
O    -0.138000000     6.161000000     2.290000000
H    -0.307000000     7.076000000     2.066000000
H    -0.038000000     5.722000000     1.446000000
O    -1.916000000    -4.003000000    -0.802000000
H    -1.923000000    -3.817000000     0.137000000
H    -2.394000000    -3.272000000    -1.194000000
O     3.259000000    -3.267000000    -2.299000000
H     2.988000000    -3.363000000    -1.386000000
H     2.847000000    -2.453000000    -2.588000000
O    -2.743000000     2.810000000     3.288000000
H    -3.594000000     2.827000000     2.849000000
H    -2.620000000     1.893000000     3.535000000
O    -7.511000000     1.188000000    -1.795000000
H    -8.099000000     0.784000000    -1.156000000
H    -8.003000000     1.171000000    -2.616000000
O    -7.822000000    -0.828000000     2.296000000
H    -7.087000000    -0.680000000     1.702000000
H    -7.995000000    -1.767000000     2.235000000
O    -4.742000000    -3.076000000    -3.080000000
H    -4.016000000    -2.556000000    -2.734000000
H    -5.323000000    -2.434000000    -3.488000000
O    -3.339000000    -6.198000000    -1.154000000
H    -2.666000000    -5.518000000    -1.185000000
H    -3.695000000    -6.141000000    -0.267000000
O     3.144000000    -3.432000000     0.340000000
H     2.617000000    -3.047000000     1.040000000
H     3.784000000    -3.980000000     0.795000000
O    -2.135000000     2.984000000    -2.137000000
H    -2.534000000     2.699000000    -2.959000000
H    -2.866000000     3.029000000    -1.520000000
O     4.838000000    -0.503000000    -0.852000000
H     4.406000000    -1.295000000    -0.532000000
H     5.477000000    -0.820000000    -1.490000000
O    -1.968000000    -1.843000000    -4.544000000
H    -2.380000000    -1.820000000    -3.681000000
H    -2.171000000    -0.992000000    -4.930000000
O     1.216000000    -4.934000000    -5.314000000
H     2.044000000    -5.202000000    -4.914000000
H     0.628000000    -4.790000000    -4.572000000
O     5.667000000     1.603000000     4.359000000
H     5.323000000     2.001000000     3.559000000
H     6.074000000     0.788000000     4.065000000
O    -4.939000000    -5.695000000    -3.142000000
H    -4.750000000    -4.757000000    -3.182000000
H    -4.312000000    -6.039000000    -2.506000000
O     1.283000000     2.874000000     5.434000000
H     1.737000000     3.580000000     5.894000000
H     0.589000000     3.315000000     4.944000000
O    -4.073000000    -3.143000000    -6.629000000
H    -3.551000000    -3.307000000    -5.844000000
H    -4.974000000    -3.325000000    -6.359000000
O     5.808000000    -3.917000000    -1.410000000
H     5.008000000    -3.629000000    -1.850000000
H     5.502000000    -4.327000000    -0.601000000
O     6.092000000    -2.895000000     2.689000000
H     6.932000000    -2.623000000     2.321000000
H     5.819000000    -3.632000000     2.143000000
O     0.718000000    -2.167000000    -5.209000000
H     1.204000000    -2.987000000    -5.119000000
H    -0.190000000    -2.405000000    -5.021000000
O     3.706000000     6.315000000     1.227000000
H     3.569000000     6.892000000     0.476000000
H     3.892000000     5.459000000     0.840000000
O    -0.100000000     4.883000000    -0.151000000
H     0.479000000     5.185000000    -0.851000000
H    -0.130000000     3.933000000    -0.258000000
O     1.947000000    -5.154000000     2.427000000
H     1.586000000    -4.277000000     2.299000000
H     1.666000000    -5.644000000     1.655000000
O    -7.873000000    -2.388000000    -1.821000000
H    -7.432000000    -2.174000000    -0.998000000
H    -8.119000000    -3.309000000    -1.728000000
O     4.724000000    -2.093000000     4.875000000
H     5.029000000    -2.426000000     5.719000000
H     5.232000000    -2.582000000     4.227000000
O     0.560000000    -2.570000000     1.904000000
H     0.445000000    -1.899000000     1.231000000
H     0.033000000    -2.262000000     2.641000000
O     4.858000000     2.275000000     1.881000000
H     4.533000000     2.245000000     0.981000000
H     5.279000000     1.425000000     2.012000000
O     2.006000000    -1.346000000     5.653000000
H     2.951000000    -1.373000000     5.500000000
H     1.671000000    -2.132000000     5.222000000
O     1.163000000     0.783000000    -6.380000000
H     0.430000000     0.409000000    -5.892000000
H     0.799000000     1.562000000    -6.800000000
O    -5.529000000    -0.176000000    -3.079000000
H    -6.233000000     0.183000000    -2.538000000
H    -4.805000000    -0.313000000    -2.469000000
O     6.784000000     4.125000000     1.872000000
H     6.034000000     3.556000000     2.046000000
H     7.399000000     3.933000000     2.579000000
O    -5.193000000     2.737000000     2.290000000
H    -5.766000000     2.118000000     2.743000000
H    -5.533000000     3.599000000     2.532000000
O     2.740000000     1.854000000    -3.978000000
H     2.115000000     2.202000000    -3.341000000
H     2.316000000     1.987000000    -4.826000000
O     6.236000000    -0.064000000     2.130000000
H     7.143000000    -0.144000000     1.835000000
H     5.995000000    -0.949000000     2.404000000
O    -5.824000000     3.535000000    -2.539000000
H    -5.699000000     2.854000000    -1.879000000
H    -6.678000000     3.343000000    -2.924000000
O     3.715000000     2.345000000    -0.682000000
H     3.032000000     1.837000000    -1.119000000
H     4.417000000     2.409000000    -1.329000000
O    -5.676000000    -4.524000000     0.304000000
H    -5.517000000    -3.589000000     0.172000000
H    -6.377000000    -4.736000000    -0.313000000
O     3.311000000    -0.846000000    -4.602000000
H     2.409000000    -0.976000000    -4.894000000
H     3.392000000     0.101000000    -4.485000000
