158
-2996.77972
C    -0.794000000     1.258000000     0.112000000
H    -1.250000000     2.241000000     0.203000000
C     0.336000000     0.926000000     0.894000000
H     0.879000000     1.674000000     1.466000000
C     0.899000000    -0.381000000     0.781000000
H     1.765000000    -0.703000000     1.410000000
C     0.356000000    -1.235000000    -0.170000000
H     0.850000000    -2.200000000    -0.242000000
C    -0.699000000    -0.910000000    -0.962000000
H    -1.088000000    -1.609000000    -1.699000000
C    -1.331000000     0.361000000    -0.795000000
C    -2.463000000     0.763000000    -1.703000000
O    -2.914000000     1.883000000    -1.645000000
O    -2.794000000    -0.032000000    -2.609000000
O    -1.476000000    -3.175000000    -4.831000000
H    -1.551000000    -3.833000000    -5.521000000
H    -1.097000000    -3.647000000    -4.089000000
O    -7.553000000     3.062000000     0.048000000
H    -6.805000000     2.654000000    -0.389000000
H    -7.722000000     3.856000000    -0.459000000
O    -5.367000000     1.580000000    -1.053000000
H    -4.413000000     1.505000000    -1.069000000
H    -5.631000000     1.457000000    -1.965000000
O    -0.973000000    -5.949000000     1.697000000
H    -0.340000000    -6.577000000     2.044000000
H    -1.049000000    -5.283000000     2.381000000
O     4.772000000    -1.915000000     6.055000000
H     4.216000000    -1.861000000     6.832000000
H     4.972000000    -2.847000000     5.968000000
O     2.131000000     2.697000000    -3.815000000
H     1.228000000     2.783000000    -3.509000000
H     2.656000000     3.111000000    -3.130000000
O    -2.747000000     4.449000000     1.834000000
H    -3.099000000     4.298000000     0.957000000
H    -1.877000000     4.818000000     1.683000000
O     1.971000000    -2.891000000    -2.910000000
H     2.166000000    -2.075000000    -3.370000000
H     1.739000000    -2.617000000    -2.023000000
O    -0.189000000    -4.349000000    -2.081000000
H    -0.015000000    -5.288000000    -2.150000000
H     0.495000000    -3.939000000    -2.611000000
O     2.020000000    -5.268000000     0.442000000
H     2.496000000    -4.660000000    -0.123000000
H     1.116000000    -4.953000000     0.426000000
O    -0.788000000     1.104000000     6.040000000
H    -0.771000000     0.777000000     5.140000000
H    -0.129000000     0.582000000     6.497000000
O    -3.980000000     4.106000000    -0.741000000
H    -3.589000000     3.301000000    -1.082000000
H    -4.763000000     4.237000000    -1.276000000
O    -0.341000000    -0.062000000     3.812000000
H     0.004000000    -0.907000000     3.522000000
H     0.355000000     0.563000000     3.611000000
O    -6.917000000    -0.598000000    -5.820000000
H    -6.378000000    -1.019000000    -5.150000000
H    -7.800000000    -0.597000000    -5.450000000
O     3.067000000     4.105000000     2.053000000
H     3.046000000     4.019000000     1.100000000
H     3.213000000     5.039000000     2.206000000
O    -2.233000000    -0.151000000    -5.597000000
H    -3.154000000     0.065000000    -5.453000000
H    -1.918000000    -0.441000000    -4.741000000
O    -6.452000000     0.095000000     1.021000000
H    -6.407000000     0.821000000     0.399000000
H    -5.692000000    -0.448000000     0.810000000
O    -2.605000000    -3.868000000    -0.008000000
H    -1.651000000    -3.859000000    -0.092000000
H    -2.803000000    -4.722000000     0.376000000
O     3.751000000    -4.947000000    -3.610000000
H     3.121000000    -4.286000000    -3.323000000
H     3.870000000    -4.774000000    -4.545000000
O    -3.824000000     3.263000000    -4.334000000
H    -3.735000000     2.849000000    -3.475000000
H    -3.987000000     2.535000000    -4.934000000
O    -5.883000000    -2.037000000    -3.863000000
H    -6.581000000    -2.628000000    -3.580000000
H    -5.150000000    -2.237000000    -3.281000000
O    -1.548000000     4.891000000    -2.632000000
H    -1.618000000     5.506000000    -3.363000000
H    -2.453000000     4.722000000    -2.374000000
O    -3.890000000    -2.436000000    -2.168000000
H    -3.339000000    -2.873000000    -1.519000000
H    -3.476000000    -1.583000000    -2.299000000
O     0.514000000    -1.600000000    -5.814000000
H    -0.411000000    -1.827000000    -5.906000000
H     0.568000000    -1.152000000    -4.970000000
O     3.674000000    -4.390000000     4.014000000
H     4.601000000    -4.211000000     3.860000000
H     3.482000000    -5.150000000     3.465000000
O     1.992000000     1.580000000     4.255000000
H     2.942000000     1.465000000     4.275000000
H     1.853000000     2.473000000     4.572000000
O    -4.438000000    -1.967000000     0.640000000
H    -3.800000000    -2.600000000     0.311000000
H    -3.968000000    -1.485000000     1.320000000
O    -4.757000000     1.205000000    -6.030000000
H    -5.414000000     0.528000000    -5.869000000
H    -4.922000000     1.492000000    -6.928000000
O     4.309000000    -0.726000000     3.323000000
H     4.460000000    -1.180000000     2.494000000
H     4.579000000    -1.355000000     3.992000000
O    -7.129000000     0.449000000    -3.148000000
H    -6.616000000    -0.358000000    -3.155000000
H    -8.039000000     0.155000000    -3.194000000
O    -6.122000000     5.001000000    -2.018000000
H    -6.748000000     5.570000000    -1.570000000
H    -5.940000000     5.449000000    -2.844000000
O     6.647000000    -1.497000000    -1.851000000
H     5.977000000    -1.011000000    -1.371000000
H     6.202000000    -2.292000000    -2.144000000
O     6.311000000     1.111000000     0.124000000
H     6.518000000     0.311000000     0.607000000
H     5.555000000     1.479000000     0.582000000
O     3.914000000    -0.556000000    -1.208000000
H     3.832000000     0.352000000    -0.916000000
H     3.564000000    -0.553000000    -2.099000000
O     3.260000000    -3.098000000    -0.182000000
H     4.058000000    -3.314000000     0.300000000
H     3.533000000    -2.428000000    -0.810000000
O     1.651000000     4.599000000     4.799000000
H     1.649000000     4.453000000     3.853000000
H     1.693000000     5.550000000     4.895000000
O     5.601000000    -1.931000000     1.131000000
H     5.748000000    -2.869000000     1.014000000
H     6.395000000    -1.616000000     1.563000000
O     5.022000000     1.524000000     4.870000000
H     4.659000000     0.646000000     4.753000000
H     5.326000000     1.775000000     3.998000000
O     0.962000000    -2.614000000     3.469000000
H     1.843000000    -2.943000000     3.647000000
H     0.432000000    -3.401000000     3.342000000
O    -2.355000000     5.359000000    -5.422000000
H    -1.505000000     4.966000000    -5.622000000
H    -2.914000000     4.617000000    -5.191000000
O     0.221000000     1.313000000    -6.250000000
H     0.000000000     1.971000000    -5.591000000
H    -0.441000000     0.630000000    -6.137000000
O     1.156000000    -1.216000000     6.905000000
H     0.513000000    -1.687000000     7.436000000
H     0.907000000    -1.408000000     6.001000000
O    -2.301000000    -0.763000000     2.105000000
H    -1.620000000    -0.153000000     2.390000000
H    -1.875000000    -1.303000000     1.440000000
O    -3.923000000    -2.703000000    -6.389000000
H    -3.216000000    -2.762000000    -5.746000000
H    -4.685000000    -2.424000000    -5.882000000
O    -3.377000000     6.839000000    -1.546000000
H    -2.691000000     7.354000000    -1.121000000
H    -3.391000000     6.014000000    -1.060000000
O    -3.506000000     2.143000000     3.524000000
H    -4.267000000     2.548000000     3.106000000
H    -2.799000000     2.777000000     3.399000000
O    -0.707000000     2.430000000    -3.713000000
H    -1.192000000     1.725000000    -3.284000000
H    -1.079000000     3.233000000    -3.350000000
O     3.725000000     1.605000000     1.461000000
H     3.620000000     0.891000000     2.089000000
H     3.502000000     2.394000000     1.956000000
