158
-3060.25219
C    -1.408000000     0.014000000     0.205000000
H    -2.429000000     0.204000000     0.528000000
C    -0.474000000     0.752000000     0.895000000
H    -0.643000000     1.453000000     1.709000000
C     0.870000000     0.653000000     0.557000000
H     1.546000000     1.322000000     1.021000000
C     1.252000000    -0.331000000    -0.382000000
H     2.318000000    -0.421000000    -0.570000000
C     0.280000000    -1.065000000    -1.083000000
H     0.631000000    -1.718000000    -1.878000000
C    -1.081000000    -0.916000000    -0.730000000
C    -2.165000000    -1.696000000    -1.498000000
O    -3.353000000    -1.391000000    -1.392000000
O    -1.801000000    -2.710000000    -2.004000000
O     1.659000000     5.808000000     3.841000000
H     2.038000000     5.119000000     3.295000000
H     0.766000000     5.911000000     3.511000000
O    -4.492000000    -3.562000000    -0.337000000
H    -4.097000000    -2.707000000    -0.513000000
H    -4.105000000    -3.839000000     0.493000000
O     6.460000000     1.407000000     4.270000000
H     6.103000000     2.275000000     4.459000000
H     6.242000000     1.254000000     3.351000000
O    -3.356000000    -3.833000000     2.008000000
H    -2.425000000    -4.023000000     2.123000000
H    -3.691000000    -3.729000000     2.899000000
O     2.171000000     5.498000000     0.707000000
H     2.378000000     6.380000000     1.016000000
H     2.452000000     5.493000000    -0.208000000
O    -3.386000000    -5.818000000    -1.592000000
H    -2.472000000    -5.581000000    -1.748000000
H    -3.848000000    -4.980000000    -1.565000000
O     0.800000000     3.663000000     2.088000000
H     1.356000000     4.100000000     1.443000000
H    -0.093000000     3.837000000     1.793000000
O     3.559000000     3.021000000     5.944000000
H     3.390000000     3.221000000     6.864000000
H     3.959000000     3.818000000     5.595000000
O     1.657000000    -5.435000000     1.476000000
H     1.311000000    -6.169000000     1.983000000
H     0.904000000    -4.858000000     1.344000000
O     6.516000000    -0.759000000     0.616000000
H     7.398000000    -0.582000000     0.287000000
H     6.143000000     0.107000000     0.777000000
O    -2.976000000    -0.987000000     4.724000000
H    -2.113000000    -0.891000000     4.323000000
H    -3.004000000    -0.309000000     5.399000000
O    -3.282000000     1.635000000    -1.674000000
H    -3.303000000     0.919000000    -1.039000000
H    -3.863000000     2.300000000    -1.306000000
O    -6.064000000    -0.484000000    -1.966000000
H    -5.211000000    -0.887000000    -2.129000000
H    -6.696000000    -1.182000000    -2.136000000
O     0.049000000    -0.314000000     5.078000000
H     0.451000000    -1.014000000     4.563000000
H     0.461000000     0.488000000     4.756000000
O    -4.184000000    -0.584000000    -6.707000000
H    -3.910000000    -0.114000000    -5.920000000
H    -4.333000000    -1.482000000    -6.411000000
O    -1.813000000     4.446000000     1.009000000
H    -2.696000000     4.078000000     0.977000000
H    -1.912000000     5.338000000     0.676000000
O    -0.542000000     2.983000000     6.330000000
H    -0.076000000     3.768000000     6.616000000
H    -0.270000000     2.860000000     5.421000000
O    -0.696000000    -4.488000000     0.013000000
H    -1.566000000    -4.237000000     0.324000000
H    -0.304000000    -3.669000000    -0.290000000
O     2.232000000    -6.249000000    -2.493000000
H     2.857000000    -6.458000000    -1.799000000
H     2.377000000    -5.321000000    -2.674000000
O    -4.469000000     3.195000000     1.710000000
H    -5.148000000     2.901000000     1.103000000
H    -4.351000000     2.461000000     2.313000000
O    -6.924000000    -2.342000000     0.667000000
H    -5.980000000    -2.295000000     0.515000000
H    -7.047000000    -3.158000000     1.153000000
O    -4.192000000    -2.602000000    -3.587000000
H    -3.525000000    -2.579000000    -2.902000000
H    -4.904000000    -3.119000000    -3.211000000
O     3.543000000    -3.494000000     1.014000000
H     3.259000000    -3.375000000     0.107000000
H     2.847000000    -4.014000000     1.416000000
O    -0.736000000     2.109000000    -3.276000000
H    -1.387000000     2.048000000    -3.975000000
H    -1.195000000     1.804000000    -2.494000000
O     5.270000000    -2.140000000    -1.338000000
H     4.685000000    -1.396000000    -1.478000000
H     5.779000000    -1.902000000    -0.564000000
O    -1.119000000    -0.932000000    -5.624000000
H    -0.865000000    -1.743000000    -5.183000000
H    -1.794000000    -0.555000000    -5.060000000
O    -2.129000000    -5.099000000    -5.755000000
H    -2.637000000    -5.835000000    -5.412000000
H    -2.499000000    -4.937000000    -6.623000000
O     5.476000000     1.664000000     1.612000000
H     4.775000000     1.598000000     0.963000000
H     5.912000000     2.492000000     1.409000000
O     5.260000000     4.881000000    -1.253000000
H     4.529000000     4.765000000    -1.861000000
H     5.997000000     5.131000000    -1.810000000
O     1.384000000     2.068000000     4.356000000
H     2.117000000     2.448000000     4.841000000
H     1.374000000     2.543000000     3.525000000
O    -4.749000000    -3.404000000    -6.138000000
H    -4.154000000    -3.017000000    -5.495000000
H    -5.579000000    -3.498000000    -5.670000000
O    -0.591000000    -3.696000000    -4.156000000
H    -1.106000000    -3.972000000    -4.915000000
H    -1.234000000    -3.327000000    -3.551000000
O    -6.672000000    -3.277000000    -2.341000000
H    -6.563000000    -3.080000000    -1.411000000
H    -7.185000000    -4.085000000    -2.357000000
O     0.209000000    -6.496000000    -4.671000000
H     0.768000000    -6.169000000    -3.966000000
H    -0.212000000    -5.712000000    -5.025000000
O     5.362000000    -2.333000000     2.654000000
H     5.667000000    -1.786000000     1.929000000
H     4.761000000    -2.956000000     2.247000000
O     0.793000000    -2.590000000     1.735000000
H     0.838000000    -1.831000000     1.154000000
H     1.206000000    -2.295000000     2.547000000
O     4.960000000    -0.818000000     5.128000000
H     5.277000000     0.085000000     5.141000000
H     5.319000000    -1.186000000     4.320000000
O    -0.215000000    -7.128000000    -0.907000000
H     0.550000000    -6.864000000    -1.418000000
H    -0.340000000    -6.416000000    -0.279000000
O     2.716000000    -1.389000000    -5.426000000
H     2.372000000    -1.349000000    -6.318000000
H     2.167000000    -0.783000000    -4.930000000
O     4.141000000     1.260000000    -0.804000000
H     3.281000000     1.573000000    -1.082000000
H     4.696000000     1.367000000    -1.576000000
O     3.298000000     4.238000000    -3.030000000
H     3.649000000     3.749000000    -3.774000000
H     2.639000000     3.656000000    -2.651000000
O     2.080000000    -1.698000000     4.096000000
H     2.905000000    -1.226000000     4.209000000
H     2.210000000    -2.521000000     4.568000000
O    -3.445000000     0.034000000    -4.085000000
H    -3.612000000     0.452000000    -3.240000000
H    -3.576000000    -0.900000000    -3.920000000
O    -6.002000000     2.080000000    -0.228000000
H    -5.822000000     1.429000000    -0.907000000
H    -6.946000000     2.022000000    -0.085000000
O     1.610000000     0.319000000    -3.741000000
H     1.858000000     0.654000000    -2.879000000
H     0.692000000     0.569000000    -3.840000000
O     1.400000000     2.511000000    -1.801000000
H     1.079000000     1.864000000    -1.172000000
H     0.704000000     2.575000000    -2.455000000
O     2.473000000    -3.445000000    -2.925000000
H     2.969000000    -2.692000000    -3.245000000
H     1.818000000    -3.606000000    -3.604000000
O    -4.426000000     0.639000000     2.829000000
H    -3.923000000     0.254000000     3.547000000
H    -4.923000000    -0.093000000     2.465000000
