158
-3037.80781
C    -0.551000000     1.382000000    -0.047000000
H    -0.960000000     2.389000000    -0.044000000
C     0.682000000     1.072000000     0.526000000
H     1.377000000     1.846000000     0.841000000
C     1.095000000    -0.272000000     0.546000000
H     2.074000000    -0.626000000     0.865000000
C     0.257000000    -1.290000000    -0.015000000
H     0.541000000    -2.334000000     0.088000000
C    -0.950000000    -0.914000000    -0.568000000
H    -1.612000000    -1.698000000    -0.927000000
C    -1.407000000     0.395000000    -0.535000000
C    -2.724000000     0.754000000    -1.243000000
O    -3.011000000     1.871000000    -1.496000000
O    -3.419000000    -0.123000000    -1.722000000
O    -6.901000000     0.762000000     1.324000000
H    -6.701000000     0.560000000     0.410000000
H    -6.122000000     0.485000000     1.806000000
O    -5.537000000     2.865000000    -0.749000000
H    -5.733000000     3.309000000    -1.574000000
H    -4.807000000     2.283000000    -0.958000000
O    -7.115000000     3.431000000     1.591000000
H    -6.446000000     3.306000000     0.918000000
H    -7.567000000     2.589000000     1.639000000
O     1.267000000     2.928000000    -4.774000000
H     1.843000000     2.745000000    -4.032000000
H     0.384000000     2.798000000    -4.429000000
O     1.924000000    -2.651000000    -2.416000000
H     2.239000000    -1.747000000    -2.409000000
H     1.213000000    -2.651000000    -3.057000000
O     1.951000000    -5.179000000     5.622000000
H     1.318000000    -4.500000000     5.856000000
H     2.273000000    -4.919000000     4.758000000
O    -3.259000000     2.259000000     3.632000000
H    -2.578000000     2.007000000     4.255000000
H    -2.800000000     2.774000000     2.969000000
O     0.531000000    -5.418000000     1.235000000
H     0.799000000    -5.309000000     0.322000000
H     1.328000000    -5.250000000     1.739000000
O    -2.823000000     4.512000000    -1.009000000
H    -3.074000000     3.654000000    -1.353000000
H    -3.642000000     4.890000000    -0.690000000
O    -1.208000000     1.498000000     5.239000000
H    -0.948000000     1.707000000     6.137000000
H    -0.381000000     1.373000000     4.773000000
O     3.102000000     4.404000000     0.699000000
H     2.824000000     5.319000000     0.751000000
H     4.031000000     4.449000000     0.472000000
O    -3.015000000    -1.869000000    -3.954000000
H    -3.901000000    -2.113000000    -4.221000000
H    -3.140000000    -1.302000000    -3.193000000
O     1.896000000    -5.524000000    -1.421000000
H     1.952000000    -4.674000000    -1.856000000
H     1.620000000    -6.129000000    -2.110000000
O    -5.810000000     3.402000000    -3.639000000
H    -6.611000000     3.788000000    -3.992000000
H    -5.165000000     4.107000000    -3.682000000
O    -4.747000000     0.892000000    -3.751000000
H    -4.230000000     0.530000000    -3.031000000
H    -5.170000000     1.665000000    -3.378000000
O    -7.196000000    -2.669000000    -2.779000000
H    -7.735000000    -3.419000000    -2.526000000
H    -6.477000000    -2.666000000    -2.147000000
O     7.158000000     1.564000000    -1.022000000
H     6.755000000     0.997000000    -0.364000000
H     7.882000000     1.046000000    -1.373000000
O    -1.544000000     5.968000000    -2.850000000
H    -0.726000000     6.351000000    -2.532000000
H    -1.947000000     5.583000000    -2.071000000
O    -5.103000000    -2.263000000    -1.054000000
H    -4.526000000    -2.687000000    -0.418000000
H    -4.701000000    -1.408000000    -1.208000000
O    -0.451000000    -2.976000000    -4.022000000
H    -1.185000000    -2.364000000    -3.962000000
H    -0.789000000    -3.705000000    -4.542000000
O     2.873000000    -4.579000000     3.017000000
H     3.229000000    -5.467000000     3.020000000
H     3.531000000    -4.058000000     2.557000000
O    -7.582000000     1.168000000    -3.429000000
H    -7.255000000     0.744000000    -4.222000000
H    -7.022000000     1.936000000    -3.319000000
O     1.135000000     3.638000000     2.642000000
H     1.751000000     3.775000000     1.922000000
H     0.286000000     3.893000000     2.283000000
O    -3.427000000    -3.870000000     0.565000000
H    -2.748000000    -3.848000000     1.239000000
H    -3.439000000    -4.779000000     0.266000000
O    -6.630000000     0.272000000    -5.707000000
H    -6.682000000    -0.558000000    -6.181000000
H    -5.737000000     0.295000000    -5.363000000
O     2.362000000     2.931000000    -1.799000000
H     2.448000000     3.300000000    -0.920000000
H     2.959000000     3.450000000    -2.337000000
O    -4.644000000     2.784000000    -6.493000000
H    -4.967000000     2.728000000    -5.594000000
H    -5.308000000     2.334000000    -7.015000000
O     5.720000000    -3.723000000    -2.336000000
H     5.256000000    -4.281000000    -1.712000000
H     5.294000000    -3.896000000    -3.175000000
O     1.490000000     0.334000000    -2.672000000
H     2.056000000     1.071000000    -2.443000000
H     0.843000000     0.300000000    -1.967000000
O     3.886000000    -0.151000000    -0.808000000
H     4.441000000    -0.208000000    -0.031000000
H     3.215000000     0.492000000    -0.578000000
O     4.452000000    -3.240000000     1.089000000
H     4.308000000    -2.370000000     0.718000000
H     5.395000000    -3.279000000     1.249000000
O     1.454000000    -0.901000000    -5.040000000
H     1.333000000    -0.313000000    -4.295000000
H     0.830000000    -1.611000000    -4.888000000
O    -1.249000000     4.261000000     1.494000000
H    -1.666000000     3.868000000     0.727000000
H    -1.239000000     5.200000000     1.306000000
O     1.352000000     1.438000000     4.087000000
H     1.263000000     2.337000000     3.771000000
H     1.471000000     0.916000000     3.294000000
O     3.786000000    -0.302000000     3.315000000
H     3.176000000    -0.952000000     3.663000000
H     4.091000000     0.177000000     4.086000000
O     4.429000000    -5.536000000    -0.435000000
H     3.524000000    -5.739000000    -0.673000000
H     4.377000000    -4.684000000    -0.002000000
O    -0.116000000    -3.209000000     4.389000000
H     0.725000000    -3.296000000     3.941000000
H    -0.753000000    -3.581000000     3.779000000
O     2.498000000     4.347000000     4.990000000
H     3.413000000     4.107000000     5.135000000
H     2.333000000     4.122000000     4.075000000
O    -3.854000000     5.175000000    -4.546000000
H    -3.409000000     4.739000000    -5.273000000
H    -3.167000000     5.685000000    -4.116000000
O    -1.850000000     0.859000000    -5.072000000
H    -1.600000000     1.690000000    -4.670000000
H    -2.120000000     0.309000000    -4.337000000
O    -6.587000000    -3.178000000     0.946000000
H    -6.246000000    -2.761000000     0.155000000
H    -6.769000000    -4.080000000     0.682000000
O    -2.302000000    -1.578000000     2.547000000
H    -2.010000000    -2.475000000     2.382000000
H    -2.032000000    -1.092000000     1.768000000
O     5.161000000     0.977000000    -3.051000000
H     5.731000000     1.624000000    -2.636000000
H     4.658000000     0.602000000    -2.329000000
O    -5.439000000    -2.597000000    -5.220000000
H    -5.782000000    -3.249000000    -5.831000000
H    -6.084000000    -2.567000000    -4.514000000
O    -1.551000000    -4.241000000     2.350000000
H    -0.802000000    -4.613000000     1.885000000
H    -2.032000000    -5.002000000     2.676000000
O    -4.535000000     0.171000000     2.407000000
H    -3.945000000    -0.580000000     2.464000000
H    -4.009000000     0.912000000     2.708000000
O    -1.120000000     3.122000000    -3.501000000
H    -1.829000000     2.997000000    -2.870000000
H    -1.064000000     4.071000000    -3.613000000
O     5.370000000    -0.534000000     1.290000000
H     6.257000000    -0.466000000     1.643000000
H     4.805000000    -0.542000000     2.063000000
