158
-3033.77076
C     0.905000000    -0.509000000     1.072000000
H     1.481000000    -1.136000000     1.747000000
C    -0.451000000    -0.438000000     1.233000000
H    -0.947000000    -0.968000000     2.041000000
C    -1.210000000     0.087000000     0.205000000
H    -2.257000000     0.089000000     0.296000000
C    -0.589000000     0.707000000    -0.849000000
H    -1.185000000     1.164000000    -1.635000000
C     0.761000000     0.630000000    -1.029000000
H     1.311000000     1.099000000    -1.840000000
C     1.559000000     0.050000000    -0.020000000
C     3.035000000    -0.151000000    -0.269000000
O     3.500000000     0.011000000    -1.393000000
O     3.711000000    -0.513000000     0.673000000
O     2.975000000    -3.523000000     5.842000000
H     3.406000000    -4.334000000     5.571000000
H     3.401000000    -2.841000000     5.323000000
O     1.775000000     5.111000000     2.393000000
H     1.601000000     4.221000000     2.087000000
H     0.985000000     5.357000000     2.876000000
O    -5.336000000     1.271000000    -0.177000000
H    -5.086000000     0.393000000    -0.462000000
H    -5.454000000     1.191000000     0.770000000
O     5.286000000    -2.475000000     0.477000000
H     4.794000000    -3.252000000     0.742000000
H     4.665000000    -1.753000000     0.574000000
O    -3.776000000    -0.062000000     5.065000000
H    -3.646000000    -0.873000000     4.573000000
H    -2.908000000     0.152000000     5.407000000
O     5.860000000     4.367000000    -2.939000000
H     5.046000000     3.878000000    -3.061000000
H     6.477000000     3.723000000    -2.591000000
O    -6.274000000     4.064000000    -0.990000000
H    -6.943000000     4.348000000    -0.367000000
H    -6.311000000     3.108000000    -0.962000000
O     1.796000000     3.749000000    -4.835000000
H     2.261000000     4.453000000    -4.385000000
H     0.962000000     3.677000000    -4.371000000
O    -0.364000000     3.027000000     4.944000000
H     0.447000000     3.393000000     4.590000000
H    -0.957000000     2.986000000     4.194000000
O    -5.774000000    -4.035000000    -2.346000000
H    -6.484000000    -4.085000000    -2.987000000
H    -6.162000000    -3.586000000    -1.595000000
O    -3.028000000    -2.567000000     4.049000000
H    -2.338000000    -2.634000000     4.710000000
H    -2.629000000    -2.914000000     3.251000000
O    -0.993000000    -2.888000000     5.741000000
H    -0.880000000    -2.405000000     6.560000000
H    -0.382000000    -3.621000000     5.810000000
O     3.981000000     2.055000000     1.331000000
H     4.684000000     2.028000000     1.979000000
H     3.877000000     1.145000000     1.052000000
O    -7.309000000     0.595000000    -2.445000000
H    -7.542000000     0.754000000    -1.530000000
H    -6.410000000     0.269000000    -2.409000000
O    -0.348000000     1.090000000    -5.299000000
H    -0.264000000     2.007000000    -5.038000000
H     0.473000000     0.685000000    -5.020000000
O     2.229000000     0.278000000     5.004000000
H     1.333000000     0.279000000     4.667000000
H     2.679000000    -0.390000000     4.488000000
O     2.812000000     1.690000000    -6.318000000
H     2.595000000     0.950000000    -5.751000000
H     2.601000000     2.463000000    -5.794000000
O     2.596000000     3.468000000    -0.320000000
H     3.190000000     3.142000000     0.357000000
H     3.058000000     3.302000000    -1.142000000
O     5.879000000    -1.675000000     5.368000000
H     6.629000000    -1.983000000     4.860000000
H     5.165000000    -1.620000000     4.733000000
O     0.325000000     2.452000000     1.610000000
H    -0.203000000     1.654000000     1.626000000
H     0.957000000     2.307000000     0.906000000
O    -3.834000000    -1.026000000    -5.079000000
H    -3.977000000    -0.985000000    -4.133000000
H    -3.516000000    -0.153000000    -5.311000000
O    -5.448000000     1.522000000     2.767000000
H    -4.961000000     0.977000000     3.385000000
H    -5.705000000     2.291000000     3.276000000
O    -2.601000000    -2.682000000    -2.551000000
H    -3.039000000    -3.528000000    -2.639000000
H    -1.674000000    -2.876000000    -2.689000000
O     7.493000000    -1.749000000    -2.605000000
H     6.789000000    -1.143000000    -2.373000000
H     8.111000000    -1.218000000    -3.107000000
O    -1.106000000    -4.142000000     2.621000000
H    -0.363000000    -4.101000000     2.019000000
H    -0.741000000    -3.883000000     3.468000000
O    -2.968000000     4.628000000    -3.096000000
H    -3.475000000     3.869000000    -3.384000000
H    -3.318000000     4.835000000    -2.230000000
O     3.765000000    -1.203000000     3.507000000
H     3.250000000    -1.983000000     3.302000000
H     3.972000000    -0.822000000     2.654000000
O    -4.887000000    -0.854000000    -2.392000000
H    -4.061000000    -1.263000000    -2.133000000
H    -5.541000000    -1.543000000    -2.276000000
O     7.672000000    -0.943000000     0.914000000
H     7.080000000    -1.694000000     0.941000000
H     8.535000000    -1.323000000     0.747000000
O     6.239000000     0.620000000    -0.996000000
H     6.625000000     0.177000000    -0.241000000
H     5.298000000     0.462000000    -0.911000000
O     3.142000000    -2.977000000    -1.717000000
H     3.869000000    -3.556000000    -1.947000000
H     3.563000000    -2.192000000    -1.366000000
O    -3.547000000     1.542000000    -6.323000000
H    -3.208000000     2.019000000    -5.565000000
H    -3.084000000     1.920000000    -7.071000000
O    -3.150000000    -5.628000000    -1.165000000
H    -3.412000000    -5.033000000    -0.462000000
H    -3.947000000    -5.759000000    -1.678000000
O    -4.386000000     2.006000000    -2.838000000
H    -4.057000000     1.965000000    -1.939000000
H    -4.882000000     1.195000000    -2.948000000
O     1.144000000    -3.945000000     0.593000000
H     1.576000000    -3.579000000    -0.179000000
H     0.792000000    -4.784000000     0.295000000
O    -0.397000000     4.562000000    -0.588000000
H    -0.107000000     4.036000000     0.157000000
H     0.192000000     5.317000000    -0.592000000
O     7.951000000     2.700000000    -2.033000000
H     7.387000000     2.136000000    -1.504000000
H     8.790000000     2.700000000    -1.573000000
O    -3.533000000    -5.035000000     1.568000000
H    -2.740000000    -4.801000000     2.052000000
H    -3.680000000    -5.957000000     1.782000000
O     1.592000000    -2.460000000    -4.563000000
H     0.741000000    -2.054000000    -4.401000000
H     1.584000000    -3.255000000    -4.030000000
O     2.399000000     0.161000000    -3.951000000
H     2.380000000    -0.753000000    -4.233000000
H     2.882000000     0.147000000    -3.125000000
O    -0.207000000     3.475000000    -3.178000000
H    -0.964000000     4.057000000    -3.239000000
H     0.031000000     3.486000000    -2.251000000
O    -1.844000000     4.872000000     2.426000000
H    -2.286000000     5.639000000     2.790000000
H    -1.902000000     4.990000000     1.478000000
O     7.966000000     1.709000000     1.761000000
H     7.699000000     0.820000000     1.529000000
H     7.408000000     1.940000000     2.504000000
O     3.841000000     2.385000000    -2.666000000
H     3.703000000     1.504000000    -2.319000000
H     3.309000000     2.415000000    -3.461000000
O    -7.543000000    -0.121000000     1.443000000
H    -8.307000000    -0.477000000     1.897000000
H    -6.943000000     0.131000000     2.145000000
O     2.637000000    -3.392000000     2.700000000
H     3.318000000    -4.051000000     2.571000000
H     2.074000000    -3.475000000     1.930000000
O     4.559000000    -4.791000000     1.482000000
H     3.976000000    -5.331000000     0.949000000
H     5.412000000    -5.219000000     1.412000000
O    -0.989000000    -1.752000000    -5.066000000
H    -1.215000000    -0.907000000    -5.454000000
H    -1.823000000    -2.103000000    -4.754000000
