158
-3042.89078
C    -0.919000000     1.195000000    -0.060000000
H    -1.415000000     2.159000000     0.025000000
C     0.360000000     1.079000000     0.570000000
H     0.815000000     1.942000000     1.050000000
C     1.194000000    -0.036000000     0.406000000
H     2.202000000    -0.073000000     0.842000000
C     0.682000000    -1.082000000    -0.297000000
H     1.298000000    -1.955000000    -0.497000000
C    -0.679000000    -1.128000000    -0.642000000
H    -1.119000000    -2.021000000    -1.081000000
C    -1.441000000     0.026000000    -0.696000000
C    -2.855000000    -0.024000000    -1.157000000
O    -3.692000000     0.796000000    -0.804000000
O    -3.276000000    -0.941000000    -1.881000000
O    -6.201000000     1.239000000    -0.002000000
H    -5.244000000     1.222000000    -0.027000000
H    -6.469000000     0.602000000    -0.664000000
O    -1.193000000     1.664000000    -4.365000000
H    -0.827000000     2.322000000    -3.773000000
H    -2.128000000     1.867000000    -4.400000000
O    -3.643000000     2.170000000     1.713000000
H    -3.569000000     1.818000000     0.825000000
H    -3.390000000     1.442000000     2.281000000
O    -0.577000000    -6.176000000    -2.867000000
H    -0.284000000    -7.083000000    -2.781000000
H    -0.272000000    -5.749000000    -2.066000000
O     0.174000000    -6.114000000     0.431000000
H    -0.438000000    -5.417000000     0.666000000
H    -0.295000000    -6.923000000     0.635000000
O    -0.938000000     4.533000000     2.179000000
H    -1.703000000     5.104000000     2.244000000
H    -0.614000000     4.666000000     1.288000000
O    -3.765000000    -0.249000000     2.895000000
H    -2.816000000    -0.368000000     2.923000000
H    -4.119000000    -1.058000000     3.265000000
O    -3.689000000     3.286000000    -1.799000000
H    -3.748000000     2.332000000    -1.741000000
H    -4.381000000     3.605000000    -1.220000000
O    -6.169000000     1.533000000     3.084000000
H    -6.072000000     0.581000000     3.081000000
H    -5.486000000     1.845000000     2.491000000
O    -1.142000000    -1.058000000     2.379000000
H    -0.443000000    -1.474000000     2.884000000
H    -0.699000000    -0.377000000     1.873000000
O     2.745000000     5.969000000     1.569000000
H     2.017000000     5.509000000     1.986000000
H     2.418000000     6.197000000     0.699000000
O    -3.386000000    -5.606000000    -0.235000000
H    -2.799000000    -6.081000000     0.353000000
H    -4.176000000    -5.455000000     0.285000000
O    -1.030000000    -1.510000000    -6.441000000
H    -0.675000000    -1.541000000    -5.553000000
H    -1.944000000    -1.777000000    -6.344000000
O    -2.589000000    -4.787000000    -3.930000000
H    -3.356000000    -5.356000000    -3.868000000
H    -1.865000000    -5.325000000    -3.610000000
O    -0.500000000     5.622000000    -0.353000000
H     0.155000000     6.223000000    -0.709000000
H    -0.996000000     6.150000000     0.272000000
O    -8.651000000     1.504000000     1.317000000
H    -7.700000000     1.505000000     1.206000000
H    -8.875000000     0.584000000     1.456000000
O    -5.132000000     0.115000000    -3.473000000
H    -4.301000000    -0.138000000    -3.071000000
H    -5.788000000    -0.416000000    -3.020000000
O     4.449000000    -2.306000000    -1.315000000
H     4.228000000    -2.350000000    -0.385000000
H     5.312000000    -2.714000000    -1.376000000
O    -3.478000000     3.263000000    -5.035000000
H    -4.054000000     3.525000000    -5.754000000
H    -4.070000000     3.109000000    -4.299000000
O    -2.687000000    -2.093000000    -4.089000000
H    -3.061000000    -1.694000000    -3.303000000
H    -2.545000000    -3.008000000    -3.847000000
O     2.377000000    -5.369000000    -4.451000000
H     2.200000000    -4.582000000    -3.936000000
H     3.048000000    -5.836000000    -3.953000000
O     1.552000000     4.673000000    -2.804000000
H     0.668000000     4.308000000    -2.751000000
H     1.871000000     4.403000000    -3.666000000
O     4.094000000     2.688000000     5.686000000
H     3.528000000     2.257000000     5.045000000
H     4.082000000     2.105000000     6.445000000
O    -4.859000000    -2.852000000    -0.690000000
H    -4.290000000    -3.587000000    -0.915000000
H    -4.533000000    -2.124000000    -1.219000000
O    -7.034000000     1.753000000    -4.615000000
H    -6.337000000     1.207000000    -4.251000000
H    -6.822000000     2.639000000    -4.323000000
O     1.842000000     0.871000000     4.346000000
H     2.374000000     1.154000000     3.603000000
H     0.962000000     1.193000000     4.149000000
O    -5.899000000    -2.258000000     1.666000000
H    -5.598000000    -2.680000000     0.861000000
H    -5.096000000    -2.062000000     2.148000000
O     7.238000000    -1.706000000     1.274000000
H     7.557000000    -2.383000000     1.871000000
H     7.214000000    -2.133000000     0.418000000
O     0.568000000    -0.621000000    -3.813000000
H     0.053000000     0.186000000    -3.827000000
H     0.522000000    -0.919000000    -2.905000000
O     2.552000000    -5.489000000     1.586000000
H     1.642000000    -5.652000000     1.338000000
H     3.032000000    -5.497000000     0.758000000
O    -6.103000000     3.962000000    -0.203000000
H    -6.291000000     3.111000000     0.193000000
H    -6.962000000     4.374000000    -0.304000000
O     3.911000000    -2.817000000     1.433000000
H     3.582000000    -3.677000000     1.697000000
H     4.215000000    -2.416000000     2.247000000
O     2.616000000    -2.763000000    -3.526000000
H     2.549000000    -1.925000000    -3.984000000
H     3.268000000    -2.611000000    -2.842000000
O     0.115000000     3.156000000     4.171000000
H     0.721000000     3.898000000     4.167000000
H    -0.490000000     3.338000000     3.452000000
O     3.722000000     1.923000000     2.680000000
H     4.257000000     2.596000000     2.260000000
H     4.018000000     1.102000000     2.286000000
O     3.722000000     3.143000000    -1.261000000
H     2.990000000     3.608000000    -1.666000000
H     3.551000000     2.220000000    -1.445000000
O    -0.927000000     3.656000000    -2.573000000
H    -1.878000000     3.551000000    -2.590000000
H    -0.743000000     4.033000000    -1.712000000
O     0.951000000    -2.757000000     3.051000000
H     1.856000000    -2.460000000     2.951000000
H     0.835000000    -3.408000000     2.358000000
O     3.315000000    -0.609000000     5.951000000
H     3.274000000    -0.144000000     6.787000000
H     2.734000000    -0.114000000     5.374000000
O    -3.861000000    -0.424000000    -5.954000000
H    -4.559000000     0.114000000    -5.581000000
H    -3.598000000    -1.004000000    -5.239000000
O    -4.367000000     4.609000000     2.108000000
H    -3.803000000     3.858000000     1.922000000
H    -5.245000000     4.316000000     1.863000000
O     5.244000000     0.053000000     1.335000000
H     5.664000000     0.621000000     0.689000000
H     5.787000000    -0.735000000     1.350000000
O     4.766000000     4.045000000     1.243000000
H     4.697000000     3.703000000     0.352000000
H     4.026000000     4.645000000     1.328000000
O    -7.221000000    -0.777000000    -1.683000000
H    -7.045000000    -1.525000000    -1.111000000
H    -8.175000000    -0.761000000    -1.769000000
O    -1.235000000    -3.694000000     1.202000000
H    -2.120000000    -3.918000000     1.492000000
H    -0.998000000    -2.930000000     1.728000000
O     3.580000000     0.443000000    -2.191000000
H     2.796000000    -0.076000000    -2.011000000
H     4.308000000    -0.150000000    -2.002000000
O     7.149000000     1.669000000    -0.003000000
H     7.056000000     2.484000000    -0.496000000
H     7.969000000     1.773000000     0.480000000
O     4.474000000    -1.989000000     3.939000000
H     4.042000000    -1.454000000     4.605000000
H     5.325000000    -1.569000000     3.809000000
