158
-3047.54349
C    -1.138000000     0.957000000     0.234000000
H    -1.924000000     1.666000000     0.480000000
C    -0.014000000     0.780000000     1.045000000
H     0.213000000     1.366000000     1.932000000
C     0.988000000    -0.101000000     0.708000000
H     1.784000000    -0.245000000     1.415000000
C     0.802000000    -0.920000000    -0.404000000
H     1.526000000    -1.666000000    -0.724000000
C    -0.227000000    -0.737000000    -1.255000000
H    -0.451000000    -1.376000000    -2.105000000
C    -1.223000000     0.175000000    -0.937000000
C    -2.412000000     0.355000000    -1.826000000
O    -3.356000000     1.038000000    -1.467000000
O    -2.352000000     0.090000000    -3.034000000
O    -6.374000000    -2.727000000     0.145000000
H    -5.440000000    -2.928000000     0.078000000
H    -6.483000000    -1.925000000    -0.365000000
O    -5.228000000     0.393000000     0.516000000
H    -5.735000000     1.189000000     0.678000000
H    -4.506000000     0.679000000    -0.043000000
O    -3.529000000     0.175000000     2.558000000
H    -4.242000000     0.123000000     1.923000000
H    -3.135000000    -0.698000000     2.549000000
O     1.090000000     1.260000000    -4.711000000
H     0.302000000     1.716000000    -4.415000000
H     1.779000000     1.564000000    -4.120000000
O     3.431000000     4.478000000     0.624000000
H     2.537000000     4.412000000     0.288000000
H     3.337000000     4.921000000     1.468000000
O     0.711000000     1.353000000     5.261000000
H     1.290000000     1.379000000     4.499000000
H     0.992000000     2.093000000     5.801000000
O     4.024000000    -0.310000000    -4.384000000
H     4.176000000     0.086000000    -3.526000000
H     4.315000000     0.355000000    -5.009000000
O    -2.130000000     3.350000000    -2.012000000
H    -2.523000000     2.569000000    -1.621000000
H    -1.988000000     3.943000000    -1.274000000
O    -1.278000000    -1.745000000    -4.642000000
H    -1.376000000    -1.455000000    -5.548000000
H    -1.585000000    -1.005000000    -4.119000000
O    -2.362000000    -4.344000000     2.233000000
H    -1.807000000    -3.565000000     2.203000000
H    -1.828000000    -5.001000000     2.680000000
O     4.593000000    -2.877000000    -1.367000000
H     4.057000000    -3.388000000    -0.759000000
H     4.341000000    -3.196000000    -2.234000000
O    -6.614000000     4.156000000    -3.347000000
H    -5.952000000     3.509000000    -3.591000000
H    -7.201000000     4.194000000    -4.102000000
O    -2.580000000     0.989000000    -5.351000000
H    -2.522000000     0.719000000    -4.435000000
H    -2.696000000     0.172000000    -5.835000000
O    -7.149000000     0.203000000    -4.226000000
H    -7.210000000     0.048000000    -3.284000000
H    -6.376000000     0.759000000    -4.328000000
O    -2.072000000    -4.031000000    -3.138000000
H    -2.940000000    -3.927000000    -2.750000000
H    -1.904000000    -3.197000000    -3.577000000
O     0.776000000    -4.146000000    -3.919000000
H     0.358000000    -4.880000000    -4.368000000
H     0.245000000    -3.385000000    -4.156000000
O    -4.884000000     1.932000000    -3.711000000
H    -4.159000000     2.048000000    -4.324000000
H    -4.471000000     1.614000000    -2.908000000
O     5.713000000     2.176000000     0.456000000
H     5.480000000     3.092000000     0.604000000
H     5.175000000     1.688000000     1.079000000
O    -3.682000000    -3.033000000    -0.207000000
H    -3.275000000    -2.293000000     0.244000000
H    -3.307000000    -3.806000000     0.215000000
O     1.297000000    -0.617000000    -6.644000000
H     2.154000000    -1.039000000    -6.703000000
H     1.316000000    -0.154000000    -5.806000000
O     4.171000000     0.688000000     2.104000000
H     3.845000000     0.246000000     2.888000000
H     4.510000000    -0.019000000     1.555000000
O    -7.237000000    -0.491000000    -1.416000000
H    -8.091000000    -0.067000000    -1.325000000
H    -6.614000000     0.147000000    -1.067000000
O     0.699000000     5.262000000     2.757000000
H     1.289000000     4.508000000     2.760000000
H     1.055000000     5.847000000     3.426000000
O     4.405000000     1.442000000    -2.128000000
H     3.821000000     2.171000000    -2.337000000
H     4.845000000     1.711000000    -1.322000000
O    -2.259000000     5.218000000     0.110000000
H    -1.586000000     5.217000000     0.791000000
H    -2.459000000     6.144000000    -0.028000000
O     3.356000000    -3.645000000    -3.678000000
H     3.515000000    -2.760000000    -4.007000000
H     2.428000000    -3.802000000    -3.854000000
O     2.809000000    -3.668000000     2.723000000
H     3.554000000    -4.253000000     2.588000000
H     3.045000000    -3.153000000     3.494000000
O     0.394000000    -4.861000000     2.338000000
H     1.191000000    -4.417000000     2.625000000
H     0.303000000    -4.617000000     1.416000000
O     3.429000000    -0.271000000     4.468000000
H     2.676000000    -0.861000000     4.427000000
H     4.158000000    -0.830000000     4.736000000
O    -6.839000000     2.425000000     1.076000000
H    -6.248000000     3.160000000     1.238000000
H    -7.231000000     2.240000000     1.930000000
O    -1.629000000    -5.255000000    -0.727000000
H    -0.748000000    -5.036000000    -0.423000000
H    -1.652000000    -4.952000000    -1.635000000
O     3.615000000     1.409000000     7.561000000
H     4.529000000     1.664000000     7.430000000
H     3.332000000     1.085000000     6.707000000
O    -2.575000000     6.398000000    -2.666000000
H    -2.656000000     5.473000000    -2.431000000
H    -3.471000000     6.733000000    -2.632000000
O    -2.682000000    -1.140000000    -7.113000000
H    -3.219000000    -1.748000000    -6.604000000
H    -2.810000000    -1.411000000    -8.022000000
O     0.731000000     3.547000000     0.508000000
H     0.614000000     3.137000000     1.365000000
H     0.484000000     2.866000000    -0.119000000
O     6.476000000    -0.879000000    -1.601000000
H     5.871000000    -1.604000000    -1.442000000
H     5.931000000    -0.095000000    -1.536000000
O    -2.663000000     2.889000000     2.669000000
H    -2.377000000     2.902000000     3.582000000
H    -3.058000000     2.025000000     2.554000000
O     4.154000000    -3.211000000     5.724000000
H     4.723000000    -2.517000000     6.057000000
H     3.321000000    -3.074000000     6.174000000
O     1.134000000    -4.397000000    -0.164000000
H     1.930000000    -4.923000000    -0.093000000
H     1.342000000    -3.734000000    -0.823000000
O     5.307000000    -1.627000000     1.101000000
H     5.465000000    -2.356000000     0.501000000
H     6.161000000    -1.454000000     1.497000000
O    -4.587000000     3.952000000     1.142000000
H    -4.040000000     4.361000000     0.471000000
H    -3.964000000     3.630000000     1.794000000
O     0.318000000    -1.226000000     4.249000000
H     0.396000000    -0.356000000     4.640000000
H    -0.178000000    -1.734000000     4.892000000
O     3.864000000    -5.206000000    -0.018000000
H     4.234000000    -5.974000000    -0.453000000
H     4.249000000    -5.218000000     0.858000000
O     2.503000000     2.670000000     2.877000000
H     3.184000000     2.962000000     3.482000000
H     2.893000000     1.924000000     2.420000000
O    -1.390000000    -1.799000000     1.934000000
H    -0.927000000    -1.401000000     2.671000000
H    -0.750000000    -1.801000000     1.222000000
O     2.192000000     2.951000000    -2.609000000
H     2.617000000     3.591000000    -3.181000000
H     1.335000000     3.332000000    -2.418000000
O    -0.815000000     2.986000000    -4.410000000
H    -1.118000000     3.329000000    -3.569000000
H    -1.546000000     2.459000000    -4.731000000
O     4.947000000     2.079000000     4.696000000
H     5.772000000     1.995000000     4.218000000
H     4.409000000     1.356000000     4.373000000
