158
-3053.20981
C    -0.372000000     1.341000000     0.623000000
H    -0.508000000     2.325000000     1.065000000
C     0.969000000     0.769000000     0.549000000
H     1.826000000     1.228000000     1.035000000
C     1.131000000    -0.513000000     0.041000000
H     2.066000000    -0.993000000     0.111000000
C     0.046000000    -1.172000000    -0.573000000
H     0.162000000    -2.188000000    -0.941000000
C    -1.219000000    -0.569000000    -0.613000000
H    -1.977000000    -1.250000000    -0.990000000
C    -1.419000000     0.722000000    -0.036000000
C    -2.739000000     1.406000000    -0.184000000
O    -2.923000000     2.507000000     0.371000000
O    -3.671000000     0.947000000    -0.854000000
O    -5.684000000     1.663000000     2.120000000
H    -5.775000000     2.457000000     1.593000000
H    -4.881000000     1.802000000     2.624000000
O    -5.347000000     3.904000000     0.869000000
H    -5.603000000     4.701000000     0.403000000
H    -4.488000000     3.682000000     0.509000000
O    -6.135000000     4.221000000     3.772000000
H    -6.331000000     4.417000000     2.856000000
H    -6.964000000     4.365000000     4.230000000
O     1.219000000     1.467000000    -2.531000000
H     0.808000000     1.345000000    -1.675000000
H     1.704000000     2.288000000    -2.448000000
O     7.376000000    -1.086000000    -0.626000000
H     7.104000000    -1.925000000    -0.254000000
H     6.633000000    -0.809000000    -1.161000000
O    -0.464000000     2.728000000     4.066000000
H     0.443000000     2.421000000     4.089000000
H    -0.415000000     3.587000000     3.648000000
O     2.530000000    -0.839000000    -3.832000000
H     2.136000000    -0.336000000    -3.120000000
H     2.524000000    -0.241000000    -4.579000000
O    -1.747000000     4.962000000     0.183000000
H    -2.261000000     4.154000000     0.165000000
H    -1.362000000     4.982000000     1.059000000
O     2.180000000     2.136000000     4.284000000
H     2.389000000     2.718000000     3.554000000
H     2.957000000     1.585000000     4.382000000
O    -3.001000000    -0.445000000    -3.011000000
H    -3.655000000    -1.144000000    -3.010000000
H    -3.105000000    -0.018000000    -2.161000000
O    -6.937000000    -2.237000000    -0.331000000
H    -6.062000000    -2.128000000     0.041000000
H    -6.783000000    -2.410000000    -1.260000000
O    -3.770000000    -3.371000000     0.050000000
H    -3.851000000    -2.450000000     0.297000000
H    -3.553000000    -3.820000000     0.867000000
O     1.696000000    -4.268000000    -1.327000000
H     1.399000000    -3.809000000    -2.112000000
H     0.891000000    -4.573000000    -0.909000000
O    -3.997000000     2.810000000    -2.933000000
H    -3.955000000     2.380000000    -2.079000000
H    -3.576000000     2.194000000    -3.532000000
O    -6.330000000     0.785000000    -1.489000000
H    -6.385000000     0.174000000    -2.224000000
H    -5.396000000     0.974000000    -1.403000000
O    -4.747000000    -0.931000000     0.878000000
H    -5.178000000    -0.356000000     1.510000000
H    -4.581000000    -0.372000000     0.120000000
O    -1.621000000    -2.133000000    -4.511000000
H    -2.013000000    -1.355000000    -4.116000000
H    -1.871000000    -2.850000000    -3.928000000
O     2.923000000    -3.001000000     1.555000000
H     3.553000000    -3.705000000     1.400000000
H     3.001000000    -2.436000000     0.786000000
O     4.382000000    -5.486000000    -1.590000000
H     3.551000000    -5.014000000    -1.656000000
H     4.567000000    -5.771000000    -2.484000000
O    -6.463000000     3.559000000    -4.575000000
H    -6.999000000     4.030000000    -3.937000000
H    -5.789000000     3.128000000    -4.049000000
O     2.892000000     3.819000000     2.092000000
H     3.688000000     4.150000000     2.509000000
H     2.679000000     4.474000000     1.428000000
O    -3.687000000    -0.724000000     3.799000000
H    -3.603000000    -0.010000000     3.166000000
H    -2.838000000    -1.164000000     3.778000000
O    -0.625000000     1.091000000    -5.219000000
H    -0.128000000     1.897000000    -5.361000000
H    -0.421000000     0.840000000    -4.318000000
O    -8.282000000     0.241000000     0.365000000
H    -7.827000000    -0.557000000     0.633000000
H    -7.921000000     0.445000000    -0.497000000
O    -8.158000000     2.871000000    -0.941000000
H    -7.528000000     2.226000000    -1.263000000
H    -7.623000000     3.524000000    -0.489000000
O    -1.354000000     5.180000000     2.931000000
H    -2.252000000     5.509000000     2.976000000
H    -0.853000000     5.772000000     3.492000000
O     5.485000000    -4.074000000     0.857000000
H     4.920000000    -4.831000000     0.702000000
H     6.077000000    -4.058000000     0.105000000
O     2.311000000     3.761000000    -1.893000000
H     2.442000000     4.422000000    -2.573000000
H     3.037000000     3.897000000    -1.284000000
O     5.985000000    -0.413000000     2.623000000
H     6.168000000    -0.384000000     3.562000000
H     5.152000000     0.050000000     2.527000000
O     0.999000000    -3.209000000    -3.987000000
H     1.657000000    -2.520000000    -3.894000000
H     0.181000000    -2.738000000    -4.148000000
O     2.449000000     5.960000000     0.167000000
H     2.187000000     6.761000000     0.622000000
H     1.903000000     5.942000000    -0.620000000
O     2.780000000    -1.768000000     4.037000000
H     2.991000000    -2.094000000     3.162000000
H     3.066000000    -2.465000000     4.628000000
O     0.529000000    -1.452000000     5.617000000
H     1.458000000    -1.541000000     5.404000000
H     0.086000000    -1.471000000     4.769000000
O     4.355000000     0.353000000     4.597000000
H     3.737000000    -0.367000000     4.477000000
H     4.834000000     0.128000000     5.395000000
O     3.534000000    -6.010000000     1.626000000
H     2.906000000    -6.366000000     2.255000000
H     3.101000000    -6.105000000     0.777000000
O    -2.964000000    -3.466000000    -2.627000000
H    -2.600000000    -4.351000000    -2.611000000
H    -3.404000000    -3.373000000    -1.782000000
O    -6.895000000    -1.525000000    -3.110000000
H    -6.487000000    -1.729000000    -3.952000000
H    -7.803000000    -1.812000000    -3.208000000
O     5.319000000    -0.060000000    -2.092000000
H     5.124000000    -0.652000000    -2.819000000
H     5.484000000     0.785000000    -2.508000000
O    -4.036000000     5.835000000     3.589000000
H    -4.399000000     6.335000000     4.320000000
H    -4.536000000     5.018000000     3.586000000
O    -1.045000000    -1.305000000     3.363000000
H    -0.798000000    -2.060000000     2.830000000
H    -1.146000000    -0.590000000     2.734000000
O     5.228000000     2.836000000     0.189000000
H     5.907000000     2.213000000     0.450000000
H     4.560000000     2.761000000     0.871000000
O     7.380000000     1.484000000     1.106000000
H     7.094000000     0.622000000     1.408000000
H     7.826000000     1.311000000     0.277000000
O     0.336000000    -3.512000000     2.221000000
H     0.382000000    -4.402000000     2.569000000
H     1.227000000    -3.323000000     1.928000000
O    -2.643000000    -6.308000000    -1.898000000
H    -3.271000000    -6.604000000    -1.239000000
H    -1.786000000    -6.475000000    -1.505000000
O    -1.049000000     7.309000000    -0.977000000
H    -0.883000000     7.868000000    -0.217000000
H    -1.274000000     6.457000000    -0.603000000
O    -2.980000000     1.927000000     3.156000000
H    -3.031000000     2.277000000     2.267000000
H    -2.079000000     2.099000000     3.429000000
O     0.219000000    -6.755000000    -1.419000000
H     0.179000000    -7.150000000    -2.291000000
H     1.058000000    -6.295000000    -1.403000000
O    -3.336000000     5.519000000    -2.935000000
H    -2.922000000     5.612000000    -2.078000000
H    -3.745000000     4.654000000    -2.911000000
