158
-3030.37389
C    -1.307000000     0.343000000     0.537000000
H    -2.219000000     0.565000000     1.087000000
C    -0.119000000     0.353000000     1.303000000
H    -0.175000000     0.559000000     2.369000000
C     1.019000000     0.092000000     0.625000000
H     1.936000000    -0.082000000     1.196000000
C     1.054000000    -0.230000000    -0.739000000
H     1.960000000    -0.505000000    -1.272000000
C    -0.139000000    -0.214000000    -1.473000000
H    -0.167000000    -0.548000000    -2.507000000
C    -1.341000000    -0.027000000    -0.815000000
C    -2.620000000    -0.260000000    -1.546000000
O    -3.689000000     0.276000000    -1.172000000
O    -2.550000000    -0.911000000    -2.577000000
O    -0.478000000    -4.716000000    -4.172000000
H     0.244000000    -4.765000000    -4.798000000
H    -0.680000000    -5.629000000    -3.967000000
O    -5.040000000    -3.659000000     1.483000000
H    -4.317000000    -3.873000000     0.893000000
H    -5.179000000    -2.720000000     1.361000000
O    -5.000000000    -0.838000000     0.950000000
H    -4.816000000    -0.463000000     1.811000000
H    -4.470000000    -0.319000000     0.345000000
O    -2.484000000    -2.112000000     5.830000000
H    -1.731000000    -2.369000000     6.362000000
H    -2.304000000    -2.484000000     4.966000000
O    -2.175000000     1.145000000     6.279000000
H    -2.836000000     0.502000000     6.023000000
H    -2.300000000     1.254000000     7.222000000
O    -2.628000000     5.839000000    -1.904000000
H    -2.537000000     4.903000000    -1.727000000
H    -1.878000000     6.240000000    -1.465000000
O    -1.147000000    -1.811000000    -4.603000000
H    -1.230000000    -2.754000000    -4.462000000
H    -1.619000000    -1.417000000    -3.869000000
O     0.323000000    -0.209000000    -6.623000000
H     0.997000000    -0.840000000    -6.872000000
H    -0.160000000    -0.639000000    -5.917000000
O     3.731000000     4.718000000     1.764000000
H     4.015000000     4.828000000     2.671000000
H     3.085000000     5.411000000     1.629000000
O     1.554000000    -2.422000000    -2.997000000
H     1.289000000    -2.583000000    -2.091000000
H     0.937000000    -2.933000000    -3.521000000
O     0.364000000    -3.182000000     1.926000000
H    -0.330000000    -3.649000000     2.390000000
H    -0.035000000    -2.349000000     1.674000000
O     0.533000000     3.407000000     1.087000000
H     0.607000000     2.538000000     1.482000000
H     0.478000000     4.005000000     1.832000000
O    -5.372000000     3.074000000     2.805000000
H    -4.637000000     3.311000000     3.372000000
H    -4.982000000     2.973000000     1.937000000
O     0.586000000     1.144000000     6.006000000
H    -0.335000000     1.369000000     6.140000000
H     1.003000000     1.974000000     5.774000000
O    -6.004000000     0.355000000    -2.699000000
H    -6.577000000    -0.301000000    -2.301000000
H    -5.149000000     0.201000000    -2.298000000
O     4.882000000     0.586000000     1.567000000
H     5.407000000     1.336000000     1.845000000
H     4.383000000     0.908000000     0.816000000
O    -5.666000000     2.857000000    -3.199000000
H    -5.709000000     3.065000000    -2.266000000
H    -5.923000000     1.937000000    -3.252000000
O    -4.739000000    -2.433000000    -2.664000000
H    -4.860000000    -2.486000000    -3.612000000
H    -3.949000000    -1.904000000    -2.553000000
O     3.667000000     4.760000000    -1.253000000
H     4.282000000     5.250000000    -1.799000000
H     3.276000000     5.421000000    -0.681000000
O    -3.744000000    -0.328000000    -4.938000000
H    -3.113000000    -0.324000000    -4.218000000
H    -4.581000000    -0.118000000    -4.523000000
O    -3.426000000    -4.569000000    -0.705000000
H    -2.492000000    -4.425000000    -0.856000000
H    -3.783000000    -4.757000000    -1.573000000
O     5.930000000     3.569000000     0.563000000
H     5.195000000     4.001000000     0.996000000
H     5.523000000     3.007000000    -0.097000000
O    -0.463000000     2.348000000    -3.052000000
H    -0.668000000     2.306000000    -3.986000000
H     0.458000000     2.608000000    -3.021000000
O    -3.694000000    -2.920000000    -5.862000000
H    -3.018000000    -3.516000000    -6.187000000
H    -3.211000000    -2.146000000    -5.573000000
O    -6.451000000     2.952000000    -0.344000000
H    -7.052000000     2.230000000    -0.158000000
H    -5.610000000     2.660000000     0.009000000
O    -3.843000000     2.633000000     0.313000000
H    -3.049000000     3.087000000     0.031000000
H    -3.844000000     1.819000000    -0.190000000
O     4.580000000     1.239000000     4.646000000
H     5.453000000     1.630000000     4.691000000
H     4.569000000     0.770000000     3.812000000
O    -0.416000000    -4.831000000    -1.230000000
H    -0.665000000    -5.026000000    -2.134000000
H     0.523000000    -5.011000000    -1.196000000
O     4.148000000    -2.999000000    -0.015000000
H     4.014000000    -2.771000000     0.905000000
H     3.946000000    -3.933000000    -0.063000000
O    -2.925000000     0.497000000    -7.858000000
H    -2.696000000    -0.399000000    -8.108000000
H    -3.529000000     0.393000000    -7.122000000
O    -6.874000000    -2.168000000    -1.092000000
H    -6.041000000    -2.304000000    -1.544000000
H    -6.627000000    -1.835000000    -0.229000000
O     4.176000000    -2.384000000    -2.813000000
H     4.387000000    -2.459000000    -1.883000000
H     3.221000000    -2.315000000    -2.838000000
O     6.180000000     2.176000000    -3.138000000
H     5.270000000     2.421000000    -3.302000000
H     6.221000000     1.246000000    -3.362000000
O     8.009000000    -0.563000000     2.517000000
H     7.974000000    -1.119000000     3.296000000
H     7.697000000    -1.125000000     1.808000000
O     1.914000000    -5.109000000     0.755000000
H     1.480000000    -4.290000000     0.995000000
H     1.671000000    -5.722000000     1.448000000
O     2.011000000     3.463000000    -3.054000000
H     2.617000000     3.799000000    -2.394000000
H     1.878000000     4.197000000    -3.654000000
O    -1.390000000     2.021000000    -5.544000000
H    -0.920000000     1.357000000    -6.049000000
H    -2.152000000     1.561000000    -5.194000000
O    -3.895000000    -0.743000000     3.547000000
H    -3.161000000    -0.149000000     3.704000000
H    -4.114000000    -1.088000000     4.413000000
O    -1.574000000     3.338000000    -0.742000000
H    -0.806000000     3.435000000    -0.178000000
H    -1.269000000     2.798000000    -1.471000000
O     2.557000000     4.250000000     4.916000000
H     3.068000000     4.878000000     5.427000000
H     3.178000000     3.554000000     4.701000000
O     6.482000000    -1.448000000     0.323000000
H     5.794000000    -2.112000000     0.281000000
H     6.125000000    -0.770000000     0.898000000
O     3.054000000    -2.757000000     2.704000000
H     2.910000000    -1.858000000     3.000000000
H     2.175000000    -3.129000000     2.633000000
O     6.454000000    -1.097000000    -3.773000000
H     5.624000000    -1.565000000    -3.674000000
H     7.122000000    -1.744000000    -3.546000000
O    -3.409000000     3.260000000     4.955000000
H    -2.700000000     3.902000000     4.974000000
H    -3.023000000     2.465000000     5.323000000
O     2.457000000    -1.303000000     5.639000000
H     1.599000000    -0.877000000     5.623000000
H     3.078000000    -0.598000000     5.454000000
O     3.529000000     2.088000000    -0.245000000
H     2.611000000     1.820000000    -0.295000000
H     3.497000000     3.043000000    -0.192000000
O     3.014000000     1.411000000    -4.783000000
H     2.691000000     2.081000000    -4.180000000
H     2.800000000     0.582000000    -4.356000000
O    -8.017000000    -1.591000000     1.638000000
H    -8.391000000    -0.899000000     1.093000000
H    -7.133000000    -1.285000000     1.841000000
