158
-3034.82155
C    -1.319000000     0.509000000     0.413000000
H    -2.291000000     0.772000000     0.823000000
C    -0.375000000     0.076000000     1.302000000
H    -0.455000000     0.038000000     2.386000000
C     0.831000000    -0.415000000     0.775000000
H     1.661000000    -0.727000000     1.462000000
C     1.043000000    -0.500000000    -0.620000000
H     2.007000000    -0.856000000    -0.974000000
C     0.070000000    -0.108000000    -1.550000000
H     0.338000000    -0.115000000    -2.603000000
C    -1.171000000     0.461000000    -1.022000000
C    -2.196000000     1.028000000    -1.994000000
O    -3.068000000     1.793000000    -1.537000000
O    -2.136000000     0.571000000    -3.148000000
O    -4.404000000    -2.244000000     4.212000000
H    -4.768000000    -1.825000000     3.433000000
H    -3.518000000    -1.889000000     4.283000000
O    -4.800000000     3.008000000     1.003000000
H    -4.012000000     3.514000000     1.200000000
H    -4.609000000     2.584000000     0.166000000
O     5.445000000    -0.235000000     5.643000000
H     5.812000000     0.249000000     6.383000000
H     5.881000000     0.134000000     4.875000000
O     1.427000000     2.539000000     0.470000000
H     1.828000000     2.146000000    -0.306000000
H     0.726000000     1.934000000     0.709000000
O     3.162000000    -3.711000000     1.979000000
H     3.541000000    -2.836000000     1.894000000
H     3.757000000    -4.174000000     2.568000000
O     6.642000000     1.201000000     3.707000000
H     7.177000000     1.883000000     4.111000000
H     7.169000000     0.887000000     2.972000000
O    -0.821000000    -0.377000000    -7.006000000
H    -1.499000000     0.152000000    -7.428000000
H    -0.444000000     0.202000000    -6.344000000
O     3.601000000    -2.650000000     5.725000000
H     3.322000000    -2.360000000     4.857000000
H     4.334000000    -2.075000000     5.946000000
O     3.227000000    -0.380000000    -3.551000000
H     3.270000000    -1.279000000    -3.226000000
H     3.026000000    -0.471000000    -4.482000000
O    -1.541000000    -3.132000000     2.666000000
H    -1.691000000    -2.528000000     3.394000000
H    -2.197000000    -2.889000000     2.014000000
O     0.470000000     1.757000000     5.104000000
H    -0.279000000     2.077000000     5.607000000
H     0.232000000     1.918000000     4.191000000
O    -2.034000000     3.827000000    -0.409000000
H    -2.566000000     3.148000000    -0.824000000
H    -1.466000000     4.147000000    -1.110000000
O     0.069000000    -4.439000000    -5.872000000
H    -0.143000000    -3.709000000    -5.290000000
H     0.403000000    -4.023000000    -6.666000000
O    -3.136000000     1.893000000     4.729000000
H    -3.815000000     2.387000000     4.270000000
H    -3.541000000     1.646000000     5.560000000
O    -3.038000000     4.588000000     2.183000000
H    -2.604000000     5.063000000     1.475000000
H    -3.647000000     5.223000000     2.559000000
O     4.354000000     0.607000000     2.478000000
H     5.165000000     0.708000000     2.976000000
H     3.764000000     1.266000000     2.845000000
O    -6.712000000     4.110000000    -5.041000000
H    -6.015000000     3.583000000    -4.651000000
H    -7.431000000     3.493000000    -5.178000000
O    -5.615000000    -1.678000000     1.887000000
H    -5.196000000    -1.351000000     1.091000000
H    -6.353000000    -2.200000000     1.572000000
O    -2.168000000    -0.828000000     4.283000000
H    -2.618000000     0.017000000     4.301000000
H    -1.510000000    -0.764000000     4.975000000
O    -4.903000000     2.248000000    -3.657000000
H    -4.231000000     2.022000000    -3.014000000
H    -5.603000000     2.648000000    -3.141000000
O     5.259000000     4.130000000     2.363000000
H     4.521000000     3.739000000     2.831000000
H     5.309000000     3.639000000     1.543000000
O    -2.931000000    -2.623000000    -1.135000000
H    -3.246000000    -3.495000000    -0.897000000
H    -3.630000000    -2.031000000    -0.857000000
O     1.493000000    -5.660000000     3.755000000
H     1.334000000    -6.602000000     3.813000000
H     2.447000000    -5.577000000     3.772000000
O     1.992000000     3.073000000    -4.536000000
H     2.382000000     2.598000000    -5.269000000
H     2.690000000     3.120000000    -3.882000000
O     3.910000000    -3.149000000    -3.164000000
H     3.594000000    -3.817000000    -3.773000000
H     4.123000000    -3.633000000    -2.367000000
O    -6.578000000     3.470000000    -1.740000000
H    -7.406000000     3.347000000    -1.275000000
H    -6.106000000     4.121000000    -1.220000000
O    -3.137000000    -4.450000000    -4.667000000
H    -3.099000000    -4.680000000    -5.596000000
H    -2.979000000    -3.506000000    -4.647000000
O     0.131000000    -1.493000000     6.430000000
H     0.579000000    -2.147000000     5.893000000
H     0.788000000    -0.813000000     6.577000000
O     0.507000000    -5.336000000     0.949000000
H     1.175000000    -5.576000000     1.592000000
H     0.086000000    -4.560000000     1.320000000
O    -3.266000000    -1.726000000    -3.776000000
H    -2.914000000    -0.852000000    -3.610000000
H    -3.228000000    -2.166000000    -2.927000000
O    -4.959000000    -0.631000000    -0.712000000
H    -4.404000000     0.115000000    -0.938000000
H    -5.848000000    -0.340000000    -0.917000000
O    -5.050000000     1.067000000    -6.151000000
H    -5.223000000     1.334000000    -5.248000000
H    -4.471000000     0.310000000    -6.069000000
O     2.950000000     2.912000000     2.926000000
H     2.625000000     3.485000000     3.621000000
H     2.296000000     2.982000000     2.232000000
O     4.481000000    -4.507000000    -0.607000000
H     4.815000000    -3.660000000    -0.311000000
H     3.678000000    -4.637000000    -0.102000000
O     5.170000000    -1.756000000     0.280000000
H     6.026000000    -1.332000000     0.231000000
H     4.618000000    -1.129000000     0.748000000
O     6.214000000    -1.157000000    -3.678000000
H     6.633000000    -1.984000000    -3.915000000
H     5.324000000    -1.402000000    -3.425000000
O    -0.452000000    -2.007000000    -4.862000000
H    -0.482000000    -1.167000000    -5.321000000
H    -1.238000000    -2.010000000    -4.317000000
O    -0.067000000     1.270000000    -5.077000000
H     0.583000000     1.778000000    -4.590000000
H    -0.873000000     1.363000000    -4.569000000
O    -0.696000000     3.598000000     2.465000000
H    -1.650000000     3.673000000     2.478000000
H    -0.485000000     3.373000000     1.559000000
O    -0.007000000    -3.279000000    -1.784000000
H    -0.675000000    -2.781000000    -1.311000000
H     0.618000000    -2.618000000    -2.081000000
O    -2.027000000     3.772000000    -4.549000000
H    -1.616000000     4.508000000    -4.096000000
H    -2.620000000     3.392000000    -3.900000000
O     2.365000000     0.287000000     6.409000000
H     1.995000000     0.823000000     5.707000000
H     3.306000000     0.275000000     6.230000000
O     3.455000000     1.983000000    -2.151000000
H     3.376000000     1.067000000    -2.417000000
H     4.114000000     2.348000000    -2.742000000
O     1.685000000    -4.065000000     7.011000000
H     2.235000000    -4.848000000     7.009000000
H     2.134000000    -3.455000000     6.425000000
O     1.085000000    -3.056000000     4.155000000
H     1.022000000    -4.011000000     4.173000000
H     0.659000000    -2.803000000     3.336000000
O    -6.077000000    -1.586000000    -4.724000000
H    -5.163000000    -1.323000000    -4.612000000
H    -6.364000000    -1.836000000    -3.846000000
O     4.933000000     2.271000000     0.157000000
H     4.148000000     2.319000000    -0.389000000
H     4.859000000     1.430000000     0.609000000
O    -5.686000000     2.565000000     3.361000000
H    -5.242000000     2.673000000     2.520000000
H    -6.221000000     1.779000000     3.250000000
