158
-3040.39141
C    -1.025000000     0.607000000     0.921000000
H    -1.780000000     0.925000000     1.636000000
C    -0.080000000    -0.359000000     1.315000000
H    -0.163000000    -0.760000000     2.322000000
C     0.884000000    -0.735000000     0.379000000
H     1.557000000    -1.428000000     0.691000000
C     0.883000000    -0.214000000    -0.943000000
H     1.652000000    -0.487000000    -1.662000000
C    -0.111000000     0.670000000    -1.296000000
H    -0.066000000     1.012000000    -2.327000000
C    -1.087000000     1.066000000    -0.406000000
C    -2.246000000     1.856000000    -0.910000000
O    -3.123000000     2.267000000    -0.164000000
O    -2.404000000     1.949000000    -2.109000000
O    -6.455000000    -0.931000000     2.700000000
H    -5.909000000    -0.638000000     3.429000000
H    -5.872000000    -0.914000000     1.941000000
O    -4.446000000     4.455000000    -0.537000000
H    -3.690000000     5.006000000    -0.741000000
H    -4.067000000     3.646000000    -0.194000000
O    -2.741000000     4.141000000     4.744000000
H    -3.050000000     4.289000000     3.850000000
H    -1.787000000     4.166000000     4.675000000
O     4.002000000    -1.884000000     3.826000000
H     3.880000000    -1.174000000     3.196000000
H     3.338000000    -1.725000000     4.497000000
O     2.602000000    -5.155000000     4.446000000
H     2.360000000    -5.297000000     3.531000000
H     3.337000000    -4.544000000     4.407000000
O     0.196000000     0.523000000    -5.627000000
H     0.368000000     1.170000000    -6.311000000
H    -0.645000000     0.786000000    -5.254000000
O     3.077000000     0.895000000     5.087000000
H     3.004000000     1.558000000     4.401000000
H     3.985000000     0.955000000     5.383000000
O     1.518000000    -2.316000000    -5.378000000
H     0.951000000    -1.610000000    -5.689000000
H     1.937000000    -2.653000000    -6.171000000
O    -2.893000000     1.414000000     4.039000000
H    -2.675000000     1.674000000     4.934000000
H    -2.746000000     2.204000000     3.518000000
O     0.656000000     3.958000000     3.527000000
H     0.418000000     3.602000000     2.671000000
H     0.900000000     4.867000000     3.349000000
O    -2.775000000     6.444000000    -1.243000000
H    -3.682000000     6.746000000    -1.207000000
H    -2.302000000     7.033000000    -0.655000000
O    -0.751000000    -4.794000000    -1.542000000
H    -0.046000000    -4.766000000    -2.189000000
H    -0.881000000    -3.879000000    -1.290000000
O    -0.579000000     4.677000000    -0.165000000
H     0.325000000     4.774000000     0.135000000
H    -0.672000000     5.330000000    -0.859000000
O     4.047000000     0.435000000     1.759000000
H     3.961000000     1.306000000     2.148000000
H     3.750000000     0.545000000     0.856000000
O    -3.850000000     6.354000000    -4.154000000
H    -3.558000000     5.502000000    -3.830000000
H    -4.704000000     6.487000000    -3.741000000
O     5.680000000    -5.523000000     1.410000000
H     5.161000000    -4.728000000     1.284000000
H     5.550000000    -6.023000000     0.604000000
O    -4.510000000    -1.768000000     0.276000000
H    -3.824000000    -1.922000000     0.926000000
H    -4.291000000    -2.356000000    -0.447000000
O    -7.567000000     2.700000000     1.521000000
H    -7.008000000     1.983000000     1.222000000
H    -6.954000000     3.389000000     1.778000000
O     6.610000000    -2.580000000    -2.577000000
H     6.082000000    -2.116000000    -1.927000000
H     7.349000000    -2.929000000    -2.079000000
O    -5.050000000     0.361000000    -2.428000000
H    -4.452000000     1.026000000    -2.770000000
H    -4.994000000     0.456000000    -1.477000000
O    -6.847000000     2.297000000    -4.488000000
H    -7.156000000     1.495000000    -4.067000000
H    -6.481000000     2.818000000    -3.773000000
O     3.968000000     3.555000000    -1.206000000
H     4.127000000     2.702000000    -1.612000000
H     4.807000000     3.792000000    -0.812000000
O    -1.854000000    -1.982000000    -0.950000000
H    -1.329000000    -1.201000000    -1.124000000
H    -1.702000000    -2.173000000    -0.025000000
O     3.225000000    -3.923000000    -1.469000000
H     3.435000000    -3.317000000    -0.758000000
H     3.610000000    -4.756000000    -1.196000000
O    -0.377000000    -2.413000000     5.922000000
H     0.479000000    -1.988000000     5.976000000
H    -0.192000000    -3.343000000     6.051000000
O     5.505000000    -0.820000000    -4.853000000
H     6.054000000    -1.198000000    -4.166000000
H     4.609000000    -0.956000000    -4.545000000
O    -6.264000000     4.112000000    -2.350000000
H    -6.402000000     4.978000000    -2.733000000
H    -5.554000000     4.239000000    -1.721000000
O     1.074000000    -4.658000000    -3.854000000
H     1.224000000    -3.944000000    -4.474000000
H     1.769000000    -4.559000000    -3.203000000
O    -6.181000000     5.641000000     1.255000000
H    -6.203000000     6.593000000     1.159000000
H    -5.318000000     5.387000000     0.928000000
O    -3.393000000    -2.045000000    -3.634000000
H    -4.288000000    -2.097000000    -3.300000000
H    -2.842000000    -2.084000000    -2.852000000
O    -5.405000000     0.875000000     0.315000000
H    -4.572000000     1.346000000     0.343000000
H    -5.157000000    -0.049000000     0.292000000
O     1.640000000     2.271000000     1.132000000
H     1.733000000     2.830000000     0.361000000
H     1.049000000     1.572000000     0.851000000
O     3.794000000    -3.331000000     1.192000000
H     3.176000000    -4.014000000     1.453000000
H     3.954000000    -2.832000000     1.993000000
O     5.478000000    -1.065000000    -0.379000000
H     5.054000000    -0.878000000     0.459000000
H     6.106000000    -0.353000000    -0.494000000
O    -2.236000000     0.604000000    -4.328000000
H    -2.225000000     1.123000000    -3.524000000
H    -2.163000000    -0.302000000    -4.029000000
O    -1.321000000     5.312000000    -5.974000000
H    -0.426000000     5.627000000    -5.852000000
H    -1.663000000     5.211000000    -5.086000000
O    -5.506000000     0.742000000     4.816000000
H    -4.846000000     1.289000000     4.391000000
H    -5.690000000     1.186000000     5.644000000
O    -2.312000000    -2.799000000     1.759000000
H    -2.243000000    -2.233000000     2.528000000
H    -2.746000000    -3.589000000     2.082000000
O    -0.580000000    -6.744000000     0.496000000
H    -0.570000000    -5.956000000    -0.048000000
H    -1.405000000    -6.691000000     0.978000000
O    -4.136000000     0.369000000    -6.305000000
H    -3.486000000     0.307000000    -5.605000000
H    -4.968000000     0.167000000    -5.879000000
O     3.143000000    -1.116000000    -3.343000000
H     3.216000000    -2.032000000    -3.075000000
H     2.431000000    -1.109000000    -3.982000000
O    -2.576000000     4.245000000    -3.260000000
H    -2.252000000     4.613000000    -2.438000000
H    -2.648000000     3.306000000    -3.091000000
O     3.117000000     1.825000000    -5.083000000
H     2.419000000     1.169000000    -5.070000000
H     2.668000000     2.649000000    -5.272000000
O     3.621000000     3.140000000     3.048000000
H     3.494000000     3.997000000     3.456000000
H     2.829000000     3.001000000     2.529000000
O     4.125000000     1.338000000    -2.627000000
H     3.842000000     0.425000000    -2.667000000
H     4.055000000     1.651000000    -3.529000000
O     2.219000000    -5.411000000     1.621000000
H     1.301000000    -5.493000000     1.363000000
H     2.617000000    -6.241000000     1.356000000
O    -2.225000000    -1.228000000     4.193000000
H    -1.583000000    -1.452000000     4.866000000
H    -2.256000000    -0.271000000     4.199000000
O    -2.519000000     3.552000000     2.020000000
H    -2.445000000     4.352000000     1.500000000
H    -2.746000000     2.873000000     1.385000000
