158
-3043.49904
C    -1.072000000    -0.795000000     0.654000000
H    -1.710000000    -1.570000000     1.072000000
C     0.346000000    -1.081000000     0.609000000
H     0.723000000    -1.972000000     1.106000000
C     1.225000000    -0.167000000     0.202000000
H     2.368000000    -0.356000000     0.256000000
C     0.754000000     0.962000000    -0.381000000
H     1.456000000     1.754000000    -0.630000000
C    -0.592000000     1.178000000    -0.565000000
H    -0.929000000     2.151000000    -0.914000000
C    -1.562000000     0.289000000    -0.083000000
C    -3.057000000     0.505000000    -0.343000000
O    -3.844000000     0.181000000     0.534000000
O    -3.498000000     1.163000000    -1.258000000
O    -5.562000000     2.416000000     0.621000000
H    -5.373000000     3.321000000     0.371000000
H    -4.835000000     1.910000000     0.257000000
O     3.875000000     3.015000000    -1.315000000
H     3.896000000     2.072000000    -1.480000000
H     4.301000000     3.402000000    -2.080000000
O     3.217000000    -4.829000000     3.786000000
H     3.273000000    -3.876000000     3.710000000
H     2.622000000    -4.976000000     4.522000000
O     5.836000000    -0.322000000     3.700000000
H     6.567000000    -0.230000000     3.088000000
H     6.219000000    -0.746000000     4.468000000
O    -0.104000000     0.215000000    -5.905000000
H    -0.322000000     0.696000000    -6.703000000
H    -0.728000000     0.535000000    -5.254000000
O     1.555000000     5.097000000    -0.771000000
H     2.110000000     4.479000000    -1.247000000
H     1.934000000     5.132000000     0.107000000
O    -2.390000000     6.273000000    -3.194000000
H    -1.977000000     5.675000000    -3.816000000
H    -2.032000000     6.020000000    -2.343000000
O     1.419000000    -1.995000000    -4.437000000
H     0.639000000    -1.684000000    -3.977000000
H     1.092000000    -2.665000000    -5.037000000
O    -4.718000000    -4.436000000     2.582000000
H    -4.923000000    -3.540000000     2.316000000
H    -4.978000000    -4.478000000     3.502000000
O    -1.193000000    -0.535000000     5.032000000
H    -1.345000000     0.140000000     4.371000000
H    -0.243000000    -0.545000000     5.150000000
O    -5.074000000     5.037000000    -0.963000000
H    -5.774000000     5.500000000    -1.423000000
H    -4.568000000     5.729000000    -0.537000000
O    -2.514000000     3.418000000     1.369000000
H    -2.373000000     3.836000000     0.519000000
H    -3.380000000     3.721000000     1.643000000
O     3.618000000    -1.985000000     2.716000000
H     4.523000000    -1.704000000     2.855000000
H     3.104000000    -1.181000000     2.791000000
O    -7.100000000     3.191000000    -4.026000000
H    -6.168000000     3.176000000    -3.806000000
H    -7.546000000     3.111000000    -3.183000000
O    -0.406000000     3.733000000    -3.026000000
H    -0.053000000     4.513000000    -3.454000000
H    -0.280000000     3.895000000    -2.091000000
O    -5.174000000    -1.417000000     4.667000000
H    -4.963000000    -0.788000000     3.977000000
H    -4.777000000    -1.049000000     5.456000000
O    -5.699000000    -0.868000000    -1.066000000
H    -5.001000000    -0.534000000    -0.503000000
H    -6.387000000    -0.205000000    -1.015000000
O     3.058000000     3.771000000     1.199000000
H     3.385000000     3.409000000     0.376000000
H     3.629000000     3.397000000     1.869000000
O    -4.564000000    -4.100000000    -1.209000000
H    -4.213000000    -4.655000000    -0.512000000
H    -5.492000000    -4.333000000    -1.256000000
O     0.668000000    -5.248000000    -1.220000000
H     1.161000000    -4.543000000    -0.800000000
H     1.265000000    -5.996000000    -1.209000000
O     5.770000000    -2.861000000    -2.365000000
H     5.110000000    -2.522000000    -2.970000000
H     5.429000000    -2.648000000    -1.496000000
O     0.924000000     3.192000000    -5.520000000
H     0.373000000     3.099000000    -4.743000000
H     1.662000000     2.604000000    -5.363000000
O    -7.739000000     1.093000000    -0.585000000
H    -8.022000000     1.870000000    -1.067000000
H    -7.213000000     1.437000000     0.137000000
O     1.219000000     5.157000000     2.413000000
H     1.020000000     4.678000000     3.218000000
H     2.025000000     4.756000000     2.089000000
O    -5.485000000     4.316000000     2.724000000
H    -5.872000000     5.038000000     2.229000000
H    -5.808000000     3.527000000     2.290000000
O    -3.466000000    -1.977000000    -2.726000000
H    -4.128000000    -1.365000000    -2.404000000
H    -3.654000000    -2.796000000    -2.267000000
O    -4.800000000    -2.057000000     1.530000000
H    -4.550000000    -1.171000000     1.268000000
H    -5.013000000    -2.498000000     0.708000000
O     4.495000000     2.304000000     3.003000000
H     4.620000000     2.408000000     3.947000000
H     4.804000000     1.418000000     2.817000000
O    -5.119000000     0.541000000    -5.205000000
H    -5.365000000     1.250000000    -4.612000000
H    -5.610000000    -0.217000000    -4.888000000
O     2.222000000     0.264000000     3.150000000
H     2.672000000     1.108000000     3.117000000
H     1.813000000     0.176000000     2.289000000
O     2.347000000    -5.518000000     0.970000000
H     2.658000000    -5.313000000     1.851000000
H     2.024000000    -6.417000000     1.033000000
O     4.224000000    -2.443000000    -0.032000000
H     3.955000000    -2.648000000     0.864000000
H     3.513000000    -2.780000000    -0.578000000
O     4.076000000    -1.675000000    -4.083000000
H     4.713000000    -1.832000000    -4.780000000
H     3.274000000    -2.096000000    -4.392000000
O     6.713000000     0.318000000    -2.316000000
H     6.417000000    -0.185000000    -3.074000000
H     6.805000000     1.213000000    -2.643000000
O    -0.789000000    -1.434000000    -2.922000000
H    -0.585000000    -0.755000000    -2.279000000
H    -1.730000000    -1.580000000    -2.828000000
O    -1.686000000     1.716000000    -4.362000000
H    -1.403000000     2.394000000    -3.749000000
H    -2.478000000     1.351000000    -3.966000000
O    -3.420000000    -5.934000000     0.599000000
H    -4.001000000    -5.473000000     1.206000000
H    -3.004000000    -6.610000000     1.134000000
O    -1.414000000     5.306000000    -0.488000000
H    -1.906000000     5.968000000    -0.002000000
H    -0.520000000     5.378000000    -0.153000000
O    -1.208000000     1.501000000     3.007000000
H    -1.855000000     2.141000000     2.712000000
H    -0.944000000     1.042000000     2.210000000
O     2.366000000    -2.794000000    -1.699000000
H     1.672000000    -2.135000000    -1.703000000
H     2.776000000    -2.716000000    -2.560000000
O    -4.592000000     2.792000000    -3.005000000
H    -4.381000000     3.596000000    -2.530000000
H    -4.545000000     2.103000000    -2.341000000
O     2.703000000     0.537000000    -5.877000000
H     1.788000000     0.255000000    -5.867000000
H     3.086000000     0.133000000    -5.098000000
O     1.666000000    -0.490000000     5.724000000
H     2.440000000    -0.156000000     6.176000000
H     1.788000000    -0.225000000     4.812000000
O     3.791000000     0.335000000    -1.461000000
H     4.085000000    -0.363000000    -0.876000000
H     3.800000000    -0.063000000    -2.332000000
O    -6.623000000    -1.268000000    -3.918000000
H    -6.458000000    -1.316000000    -2.977000000
H    -6.158000000    -2.021000000    -4.282000000
O     5.993000000     0.729000000     0.881000000
H     5.681000000     0.834000000    -0.018000000
H     6.609000000    -0.003000000     0.836000000
O     7.392000000     3.003000000     1.267000000
H     7.993000000     2.644000000     0.614000000
H     6.715000000     2.333000000     1.364000000
O    -4.874000000     1.287000000     3.113000000
H    -4.135000000     0.901000000     2.642000000
H    -5.495000000     1.529000000     2.426000000
