158
-3056.98946
C    -0.915000000    -0.215000000     1.045000000
H    -1.537000000    -0.607000000     1.845000000
C     0.364000000    -0.687000000     1.102000000
H     0.656000000    -1.459000000     1.809000000
C     1.165000000    -0.339000000     0.055000000
H     2.181000000    -0.665000000     0.111000000
C     0.753000000     0.524000000    -0.924000000
H     1.407000000     0.817000000    -1.742000000
C    -0.580000000     0.959000000    -1.019000000
H    -0.817000000     1.623000000    -1.846000000
C    -1.407000000     0.597000000     0.047000000
C    -2.795000000     1.134000000     0.136000000
O    -3.366000000     1.120000000     1.180000000
O    -3.249000000     1.714000000    -0.806000000
O    -7.114000000    -0.987000000     4.471000000
H    -6.696000000    -0.746000000     3.644000000
H    -6.386000000    -1.118000000     5.078000000
O    -5.345000000     3.079000000     0.181000000
H    -4.891000000     3.897000000    -0.020000000
H    -4.668000000     2.406000000     0.114000000
O     3.082000000     3.625000000    -2.763000000
H     4.032000000     3.738000000    -2.782000000
H     2.933000000     2.777000000    -3.180000000
O     1.699000000    -1.525000000     5.071000000
H     2.145000000    -1.091000000     4.345000000
H     2.320000000    -1.476000000     5.798000000
O     6.851000000     0.677000000     2.743000000
H     7.719000000     0.907000000     3.073000000
H     6.764000000    -0.259000000     2.927000000
O    -0.544000000     0.824000000    -4.671000000
H    -0.629000000     1.647000000    -5.153000000
H    -1.440000000     0.597000000    -4.423000000
O     1.064000000    -1.852000000    -3.168000000
H     0.237000000    -1.870000000    -2.687000000
H     0.972000000    -1.118000000    -3.776000000
O    -3.315000000     0.714000000     5.237000000
H    -2.444000000     0.339000000     5.107000000
H    -3.398000000     1.373000000     4.548000000
O    -4.366000000     5.502000000    -0.587000000
H    -5.159000000     6.034000000    -0.515000000
H    -3.666000000     6.072000000    -0.268000000
O    -0.619000000    -5.889000000    -1.673000000
H    -1.529000000    -5.734000000    -1.927000000
H    -0.269000000    -5.017000000    -1.491000000
O    -2.010000000     4.568000000     1.200000000
H    -1.068000000     4.397000000     1.205000000
H    -2.338000000     4.080000000     0.445000000
O     2.314000000     0.463000000     3.356000000
H     2.941000000     1.104000000     3.020000000
H     1.460000000     0.879000000     3.239000000
O    -4.564000000    -4.051000000     0.613000000
H    -3.687000000    -4.365000000     0.832000000
H    -5.143000000    -4.518000000     1.217000000
O    -8.018000000     1.084000000     0.090000000
H    -8.219000000     0.442000000     0.771000000
H    -7.073000000     1.218000000     0.159000000
O    -5.661000000     0.377000000    -1.395000000
H    -4.736000000     0.508000000    -1.186000000
H    -5.908000000    -0.407000000    -0.904000000
O    -6.104000000     2.350000000    -3.480000000
H    -6.195000000     1.833000000    -2.680000000
H    -6.840000000     2.962000000    -3.455000000
O     3.254000000     3.284000000     0.583000000
H     3.477000000     2.683000000    -0.128000000
H     3.462000000     2.798000000     1.381000000
O    -0.156000000    -3.213000000    -0.789000000
H     0.539000000    -2.805000000    -0.272000000
H    -0.791000000    -3.517000000    -0.140000000
O     3.478000000    -3.963000000     1.476000000
H     4.301000000    -4.451000000     1.438000000
H     3.137000000    -3.999000000     0.582000000
O     0.533000000    -4.006000000     6.246000000
H     1.266000000    -3.854000000     5.649000000
H     0.581000000    -4.940000000     6.451000000
O     6.282000000    -1.229000000     0.337000000
H     6.288000000    -2.185000000     0.381000000
H     5.407000000    -0.981000000     0.636000000
O     6.408000000    -2.674000000    -4.502000000
H     6.202000000    -3.298000000    -3.806000000
H     6.285000000    -1.815000000    -4.097000000
O    -7.872000000     4.179000000    -0.026000000
H    -8.240000000     3.601000000    -0.694000000
H    -6.997000000     3.828000000     0.140000000
O     2.577000000    -4.517000000    -0.936000000
H     1.657000000    -4.509000000    -1.200000000
H     3.004000000    -5.089000000    -1.574000000
O    -5.944000000     3.418000000     3.699000000
H    -5.022000000     3.195000000     3.569000000
H    -6.296000000     3.508000000     2.813000000
O    -0.872000000    -0.210000000     4.525000000
H    -0.687000000     0.651000000     4.150000000
H    -0.041000000    -0.486000000     4.912000000
O    -6.226000000    -2.031000000    -0.185000000
H    -5.709000000    -2.821000000    -0.026000000
H    -6.996000000    -2.341000000    -0.661000000
O    -2.754000000    -2.517000000    -1.960000000
H    -1.851000000    -2.219000000    -1.849000000
H    -2.756000000    -3.409000000    -1.612000000
O    -6.020000000    -0.261000000     2.120000000
H    -5.284000000     0.292000000     1.857000000
H    -5.924000000    -1.053000000     1.592000000
O     4.484000000     2.089000000     2.955000000
H     5.238000000     1.514000000     2.825000000
H     4.728000000     2.638000000     3.700000000
O    -3.869000000     3.885000000    -4.189000000
H    -4.287000000     4.595000000    -4.676000000
H    -4.597000000     3.402000000    -3.797000000
O     0.107000000     2.043000000     3.042000000
H     0.067000000     2.992000000     3.160000000
H    -0.324000000     1.888000000     2.201000000
O     2.303000000    -4.398000000     3.900000000
H     2.560000000    -3.961000000     3.087000000
H     1.959000000    -5.246000000     3.617000000
O     4.023000000    -1.285000000     1.839000000
H     3.867000000    -2.229000000     1.813000000
H     3.362000000    -0.950000000     2.444000000
O     4.660000000     0.432000000    -5.526000000
H     5.136000000     0.590000000    -4.711000000
H     3.841000000     0.916000000    -5.424000000
O    -3.045000000     0.084000000    -3.370000000
H    -3.914000000     0.484000000    -3.414000000
H    -2.866000000     0.003000000    -2.433000000
O    -0.825000000     6.657000000    -2.685000000
H    -0.267000000     5.883000000    -2.756000000
H    -1.290000000     6.541000000    -1.856000000
O    -1.454000000    -4.202000000     1.444000000
H    -1.590000000    -3.824000000     2.313000000
H    -1.029000000    -5.043000000     1.612000000
O     0.684000000     4.516000000    -2.220000000
H     0.025000000     3.828000000    -2.121000000
H     1.469000000     4.055000000    -2.517000000
O     0.595000000     4.106000000     0.855000000
H     0.946000000     4.971000000     0.646000000
H     1.077000000     3.507000000     0.284000000
O     3.784000000    -1.542000000    -2.111000000
H     3.724000000    -2.357000000    -1.612000000
H     3.015000000    -1.553000000    -2.681000000
O    -1.983000000     3.732000000    -1.978000000
H    -2.585000000     4.173000000    -2.577000000
H    -2.520000000     3.069000000    -1.543000000
O     2.178000000     1.954000000    -5.082000000
H     1.308000000     1.566000000    -5.174000000
H     2.091000000     2.829000000    -5.460000000
O    -1.345000000     3.535000000    -5.743000000
H    -1.041000000     4.442000000    -5.734000000
H    -2.104000000     3.531000000    -5.160000000
O     4.913000000     0.689000000    -1.387000000
H     5.356000000     0.354000000    -0.608000000
H     4.345000000    -0.029000000    -1.667000000
O    -1.160000000    -2.961000000     4.080000000
H    -0.618000000    -3.292000000     4.796000000
H    -0.925000000    -2.036000000     4.010000000
O     6.969000000     0.295000000    -3.171000000
H     6.133000000     0.323000000    -2.706000000
H     7.626000000     0.228000000    -2.479000000
O    -3.331000000     2.553000000     3.312000000
H    -2.901000000     3.381000000     3.098000000
H    -3.331000000     2.063000000     2.489000000
