158
-3057.73414
C     0.238000000    -0.500000000     1.415000000
H     0.326000000    -0.801000000     2.455000000
C    -0.685000000    -0.970000000     0.516000000
H    -1.331000000    -1.800000000     0.791000000
C    -0.797000000    -0.509000000    -0.758000000
H    -1.549000000    -0.853000000    -1.581000000
C    -0.029000000     0.546000000    -1.120000000
H    -0.199000000     0.919000000    -2.127000000
C     0.939000000     1.144000000    -0.263000000
H     1.645000000     1.901000000    -0.594000000
C     1.048000000     0.572000000     0.992000000
C     1.969000000     1.169000000     1.999000000
O     2.640000000     2.162000000     1.762000000
O     2.211000000     0.585000000     2.991000000
O     2.540000000     7.311000000     2.276000000
H     3.088000000     6.605000000     1.934000000
H     2.203000000     6.972000000     3.106000000
O    -2.186000000     1.471000000     1.532000000
H    -1.538000000     0.886000000     1.139000000
H    -3.008000000     1.244000000     1.097000000
O     3.391000000    -2.018000000     2.985000000
H     3.521000000    -2.042000000     2.037000000
H     2.954000000    -1.181000000     3.146000000
O     1.039000000    -4.693000000    -5.304000000
H     0.612000000    -5.531000000    -5.486000000
H     1.388000000    -4.791000000    -4.418000000
O     1.435000000     6.352000000     4.453000000
H     1.695000000     6.533000000     5.356000000
H     1.700000000     5.444000000     4.304000000
O    -3.634000000    -0.291000000     4.833000000
H    -2.681000000    -0.197000000     4.836000000
H    -3.963000000     0.605000000     4.770000000
O     3.916000000     5.278000000     1.134000000
H     3.592000000     5.023000000     0.270000000
H     4.607000000     4.645000000     1.327000000
O    -2.221000000    -3.857000000    -3.537000000
H    -1.857000000    -3.012000000    -3.803000000
H    -2.288000000    -3.800000000    -2.584000000
O    -6.021000000    -2.287000000     1.289000000
H    -5.410000000    -2.303000000     2.025000000
H    -6.739000000    -1.728000000     1.586000000
O    -4.362000000    -2.459000000     3.487000000
H    -4.249000000    -1.644000000     3.977000000
H    -3.735000000    -3.065000000     3.883000000
O     4.699000000     0.780000000     4.265000000
H     4.543000000     1.633000000     4.671000000
H     3.965000000     0.666000000     3.661000000
O    -2.329000000     1.713000000    -4.018000000
H    -3.185000000     2.108000000    -3.852000000
H    -2.427000000     0.803000000    -3.739000000
O     2.308000000     1.110000000    -4.801000000
H     1.973000000     1.990000000    -4.629000000
H     1.624000000     0.690000000    -5.322000000
O    -1.140000000     0.228000000     5.224000000
H    -0.854000000     1.141000000     5.241000000
H    -0.357000000    -0.273000000     5.455000000
O    -4.188000000    -0.215000000    -3.202000000
H    -4.899000000     0.389000000    -2.986000000
H    -4.327000000    -0.965000000    -2.624000000
O    -7.054000000    -1.917000000    -3.417000000
H    -6.423000000    -2.567000000    -3.728000000
H    -6.661000000    -1.566000000    -2.617000000
O     2.634000000     5.085000000    -1.245000000
H     2.920000000     4.191000000    -1.437000000
H     2.261000000     5.399000000    -2.069000000
O     6.759000000     0.636000000     2.494000000
H     6.079000000     0.685000000     3.166000000
H     7.533000000     1.017000000     2.908000000
O     2.198000000     3.849000000     3.734000000
H     2.290000000     3.213000000     3.026000000
H     2.980000000     3.725000000     4.271000000
O    -0.647000000    -1.497000000    -4.297000000
H    -0.992000000    -1.190000000    -5.136000000
H     0.301000000    -1.521000000    -4.422000000
O    -4.241000000     1.219000000    -0.319000000
H    -4.543000000     0.426000000    -0.761000000
H    -3.883000000     1.762000000    -1.021000000
O     0.704000000    -5.884000000    -2.715000000
H     0.199000000    -5.727000000    -1.918000000
H     0.260000000    -6.618000000    -3.140000000
O     0.074000000    -4.495000000     0.008000000
H     0.625000000    -4.464000000     0.790000000
H     0.380000000    -3.765000000    -0.529000000
O    -0.630000000     3.743000000    -3.180000000
H    -1.126000000     3.026000000    -3.575000000
H    -0.930000000     3.771000000    -2.272000000
O     1.748000000     1.035000000     5.654000000
H     2.118000000     0.260000000     6.076000000
H     1.882000000     0.886000000     4.718000000
O     6.237000000    -1.318000000    -0.185000000
H     5.313000000    -1.096000000    -0.071000000
H     6.691000000    -0.476000000    -0.156000000
O     1.907000000     3.820000000    -4.366000000
H     1.224000000     3.727000000    -3.703000000
H     1.448000000     4.145000000    -5.141000000
O     5.160000000     2.774000000     1.544000000
H     5.671000000     2.000000000     1.779000000
H     4.257000000     2.538000000     1.757000000
O     3.249000000    -1.484000000    -0.492000000
H     3.250000000    -2.355000000    -0.094000000
H     2.352000000    -1.365000000    -0.804000000
O    -4.767000000    -3.569000000    -4.579000000
H    -3.952000000    -3.416000000    -4.100000000
H    -4.532000000    -4.204000000    -5.255000000
O     4.373000000     3.465000000     5.470000000
H     5.107000000     3.427000000     6.083000000
H     3.643000000     3.801000000     5.990000000
O     2.038000000     3.631000000     6.752000000
H     1.980000000     2.813000000     6.259000000
H     1.926000000     3.368000000     7.666000000
O    -1.301000000     3.679000000    -0.528000000
H    -0.463000000     3.987000000    -0.181000000
H    -1.445000000     2.838000000    -0.094000000
O    -1.895000000    -4.509000000     3.609000000
H    -1.171000000    -4.988000000     4.012000000
H    -1.541000000    -4.197000000     2.776000000
O     3.419000000    -4.241000000     4.434000000
H     3.551000000    -3.445000000     3.920000000
H     2.873000000    -4.798000000     3.878000000
O    -4.656000000     3.316000000    -3.459000000
H    -4.842000000     4.197000000    -3.133000000
H    -5.404000000     2.792000000    -3.174000000
O     4.709000000     2.815000000    -1.363000000
H     4.652000000     1.929000000    -1.719000000
H     5.063000000     2.697000000    -0.481000000
O    -3.030000000    -4.128000000    -0.929000000
H    -3.462000000    -4.956000000    -0.718000000
H    -2.257000000    -4.111000000    -0.366000000
O     1.143000000    -2.929000000    -1.963000000
H     0.911000000    -3.748000000    -2.401000000
H     1.623000000    -2.431000000    -2.624000000
O     4.981000000     0.338000000    -2.807000000
H     5.218000000     0.623000000    -3.690000000
H     5.788000000    -0.033000000    -2.450000000
O    -2.089000000     4.001000000     2.634000000
H    -3.003000000     3.905000000     2.904000000
H    -1.947000000     3.289000000     2.011000000
O    -0.949000000     2.959000000     4.988000000
H    -1.415000000     3.073000000     4.160000000
H    -0.024000000     2.941000000     4.741000000
O    -2.880000000    -1.072000000    -5.741000000
H    -3.265000000    -0.806000000    -4.906000000
H    -2.805000000    -0.258000000    -6.240000000
O     1.019000000     4.213000000     0.798000000
H     1.773000000     3.776000000     1.194000000
H     1.355000000     5.067000000     0.523000000
O    -4.577000000    -1.947000000    -1.128000000
H    -4.145000000    -2.785000000    -1.292000000
H    -5.202000000    -2.132000000    -0.427000000
O     2.679000000    -1.405000000    -3.620000000
H     3.364000000    -1.293000000    -2.961000000
H     2.483000000    -0.515000000    -3.913000000
O     2.245000000    -1.527000000     6.847000000
H     1.425000000    -2.019000000     6.884000000
H     2.878000000    -2.083000000     7.300000000
O     0.301000000     0.428000000    -6.560000000
H     0.159000000     0.029000000    -7.418000000
H    -0.460000000     0.994000000    -6.429000000
