158
-3051.31576
C    -0.450000000    -0.102000000    -1.406000000
H    -0.820000000    -0.467000000    -2.361000000
C    -0.543000000    -1.079000000    -0.400000000
H    -0.931000000    -2.061000000    -0.658000000
C    -0.084000000    -0.854000000     0.836000000
H    -0.190000000    -1.661000000     1.552000000
C     0.441000000     0.365000000     1.179000000
H     0.728000000     0.599000000     2.201000000
C     0.558000000     1.361000000     0.199000000
H     0.722000000     2.381000000     0.538000000
C     0.077000000     1.132000000    -1.079000000
C     0.324000000     2.177000000    -2.217000000
O    -0.029000000     2.001000000    -3.345000000
O     0.939000000     3.197000000    -1.901000000
O    -1.789000000     7.134000000    -1.776000000
H    -1.936000000     6.994000000    -0.840000000
H    -1.333000000     6.345000000    -2.067000000
O    -2.277000000     3.698000000     2.160000000
H    -2.622000000     4.028000000     1.330000000
H    -2.374000000     2.748000000     2.099000000
O     4.292000000     1.077000000    -4.951000000
H     3.770000000     1.515000000    -5.622000000
H     5.089000000     1.604000000    -4.886000000
O     0.172000000     7.087000000    -4.373000000
H    -0.139000000     6.223000000    -4.100000000
H     0.874000000     7.295000000    -3.757000000
O     1.138000000    -0.035000000     4.824000000
H     1.511000000     0.043000000     5.702000000
H     0.388000000     0.560000000     4.829000000
O    -1.632000000    -2.015000000    -5.213000000
H    -1.608000000    -1.085000000    -4.985000000
H    -2.215000000    -2.406000000    -4.562000000
O     1.938000000     5.609000000    -0.747000000
H     1.290000000     5.003000000    -1.106000000
H     2.306000000     5.147000000     0.006000000
O     3.436000000     3.076000000    -0.307000000
H     3.601000000     2.151000000    -0.487000000
H     2.752000000     3.323000000    -0.929000000
O    -2.504000000     0.990000000     1.627000000
H    -3.277000000     0.452000000     1.796000000
H    -1.813000000     0.359000000     1.424000000
O    -4.352000000    -0.718000000     2.889000000
H    -4.505000000    -0.639000000     3.830000000
H    -5.213000000    -0.577000000     2.494000000
O    -4.170000000    -0.096000000    -3.049000000
H    -3.607000000    -0.862000000    -3.159000000
H    -4.706000000    -0.077000000    -3.842000000
O    -1.871000000     0.566000000     5.960000000
H    -1.799000000     1.519000000     5.906000000
H    -2.700000000     0.363000000     5.527000000
O    -0.720000000     4.903000000    -3.054000000
H    -1.452000000     4.347000000    -3.320000000
H    -0.098000000     4.301000000    -2.646000000
O    -3.758000000     4.121000000    -0.233000000
H    -4.538000000     3.715000000     0.146000000
H    -3.619000000     3.652000000    -1.055000000
O     0.437000000     2.939000000     5.000000000
H     1.071000000     3.325000000     4.395000000
H    -0.343000000     3.487000000     4.910000000
O     0.056000000     3.308000000    -8.028000000
H    -0.846000000     3.227000000    -7.720000000
H     0.568000000     3.461000000    -7.234000000
O     2.652000000    -4.561000000     4.305000000
H     2.601000000    -4.204000000     5.192000000
H     3.494000000    -5.016000000     4.279000000
O    -3.636000000    -4.908000000     5.061000000
H    -3.119000000    -4.399000000     4.437000000
H    -4.027000000    -5.606000000     4.535000000
O     2.210000000     3.694000000     2.761000000
H     3.087000000     3.704000000     2.376000000
H     1.889000000     4.588000000     2.647000000
O     4.281000000     0.498000000    -1.944000000
H     4.244000000     0.699000000    -2.879000000
H     3.682000000    -0.240000000    -1.834000000
O     3.525000000    -0.988000000     3.583000000
H     3.964000000    -0.197000000     3.271000000
H     2.696000000    -0.675000000     3.946000000
O     2.664000000    -1.842000000    -2.036000000
H     1.775000000    -1.790000000    -2.387000000
H     3.087000000    -2.527000000    -2.555000000
O    -3.711000000    -2.453000000    -0.091000000
H    -4.048000000    -1.730000000     0.438000000
H    -3.721000000    -3.207000000     0.498000000
O     1.727000000     6.312000000     2.112000000
H     2.139000000     7.009000000     2.623000000
H     1.925000000     6.533000000     1.202000000
O     2.269000000     7.538000000    -2.850000000
H     2.549000000     8.440000000    -2.693000000
H     2.241000000     7.140000000    -1.980000000
O     2.037000000    -3.994000000    -0.121000000
H     2.111000000    -3.059000000    -0.308000000
H     1.756000000    -4.034000000     0.793000000
O    -0.995000000    -3.442000000     6.755000000
H    -0.297000000    -3.513000000     7.407000000
H    -1.413000000    -4.303000000     6.758000000
O     0.390000000    -6.011000000    -1.665000000
H     0.690000000    -5.191000000    -1.273000000
H     1.087000000    -6.255000000    -2.274000000
O    -3.540000000    -4.811000000     1.483000000
H    -2.677000000    -5.224000000     1.459000000
H    -3.464000000    -4.136000000     2.158000000
O    -3.989000000     1.749000000    -5.676000000
H    -3.188000000     1.225000000    -5.647000000
H    -4.688000000     1.129000000    -5.470000000
O     0.777000000     0.468000000    -6.562000000
H     1.031000000     1.342000000    -6.266000000
H     1.181000000    -0.126000000    -5.930000000
O    -2.742000000    -3.010000000     3.267000000
H    -3.338000000    -2.260000000     3.270000000
H    -1.878000000    -2.629000000     3.423000000
O     5.313000000     4.645000000     1.014000000
H     4.603000000     4.127000000     0.634000000
H     5.790000000     4.988000000     0.258000000
O     3.659000000     5.515000000    -4.434000000
H     2.963000000     6.082000000    -4.766000000
H     3.685000000     5.692000000    -3.494000000
O     0.525000000    -3.162000000    -3.341000000
H    -0.404000000    -2.933000000    -3.365000000
H     0.631000000    -3.808000000    -4.040000000
O     4.960000000    -1.946000000    -0.285000000
H     4.076000000    -1.966000000    -0.651000000
H     5.180000000    -1.015000000    -0.241000000
O     2.187000000    -1.020000000    -4.937000000
H     3.103000000    -0.787000000    -4.786000000
H     2.057000000    -1.821000000    -4.431000000
O    -1.479000000     0.727000000    -4.961000000
H    -1.030000000     1.117000000    -4.211000000
H    -0.829000000     0.744000000    -5.664000000
O    -0.506000000    -2.173000000     4.214000000
H    -0.582000000    -2.470000000     5.121000000
H     0.100000000    -1.433000000     4.255000000
O    -1.709000000     6.440000000     1.218000000
H    -1.479000000     5.569000000     1.541000000
H    -1.040000000     7.017000000     1.588000000
O    -2.926000000     3.042000000    -2.664000000
H    -3.648000000     2.891000000    -3.275000000
H    -2.269000000     2.388000000    -2.903000000
O     1.609000000     2.941000000    -5.306000000
H     1.212000000     2.533000000    -4.536000000
H     2.043000000     3.723000000    -4.965000000
O     1.097000000     1.507000000     7.302000000
H     0.504000000     1.985000000     7.881000000
H     0.841000000     1.778000000     6.420000000
O    -1.026000000    -5.982000000     2.027000000
H    -0.853000000    -6.480000000     2.826000000
H    -0.314000000    -5.343000000     1.985000000
O     0.787000000    -3.850000000     2.460000000
H     0.244000000    -3.387000000     3.098000000
H     1.535000000    -4.167000000     2.968000000
O     4.781000000    -5.405000000     1.116000000
H     3.864000000    -5.137000000     1.055000000
H     4.745000000    -6.339000000     1.322000000
O    -2.785000000    -2.444000000    -2.525000000
H    -2.896000000    -2.287000000    -1.588000000
H    -2.817000000    -3.397000000    -2.614000000
O    -4.124000000     1.148000000    -0.630000000
H    -4.125000000     1.087000000    -1.586000000
H    -3.203000000     1.064000000    -0.385000000
