158
-3022.55817
C    -0.940000000    -0.113000000    -1.091000000
H    -1.543000000    -0.389000000    -1.952000000
C    -0.617000000    -1.119000000    -0.194000000
H    -0.975000000    -2.129000000    -0.374000000
C     0.196000000    -0.834000000     0.810000000
H     0.376000000    -1.660000000     1.403000000
C     0.878000000     0.301000000     0.891000000
H     1.728000000     0.407000000     1.561000000
C     0.470000000     1.367000000     0.052000000
H     0.890000000     2.364000000     0.152000000
C    -0.486000000     1.172000000    -0.945000000
C    -0.833000000     2.265000000    -1.888000000
O    -1.760000000     2.095000000    -2.691000000
O    -0.132000000     3.229000000    -1.928000000
O    -2.391000000     5.773000000    -3.007000000
H    -1.839000000     5.203000000    -3.542000000
H    -2.211000000     5.504000000    -2.106000000
O     1.639000000     2.030000000     4.124000000
H     2.272000000     1.312000000     4.087000000
H     1.084000000     1.821000000     4.875000000
O     1.342000000     0.175000000    -4.339000000
H     1.055000000     0.929000000    -4.855000000
H     1.869000000     0.553000000    -3.635000000
O     1.710000000     6.140000000    -0.467000000
H     1.421000000     6.933000000    -0.918000000
H     2.269000000     6.457000000     0.241000000
O    -1.122000000     5.795000000    -6.354000000
H    -1.310000000     4.970000000    -5.907000000
H    -0.251000000     6.042000000    -6.044000000
O    -0.636000000    -1.475000000     6.457000000
H    -1.439000000    -1.658000000     5.968000000
H    -0.302000000    -0.664000000     6.075000000
O    -3.143000000    -1.966000000    -5.798000000
H    -2.872000000    -1.177000000    -5.328000000
H    -2.905000000    -2.685000000    -5.213000000
O     1.221000000     5.114000000    -3.028000000
H     0.708000000     4.383000000    -2.683000000
H     1.568000000     5.551000000    -2.250000000
O     2.689000000     1.779000000    -2.443000000
H     2.853000000     1.891000000    -1.507000000
H     1.955000000     2.365000000    -2.629000000
O    -2.264000000     1.170000000     1.717000000
H    -2.323000000     0.816000000     2.604000000
H    -1.451000000     0.808000000     1.367000000
O    -4.022000000    -1.918000000     1.109000000
H    -3.773000000    -1.113000000     1.563000000
H    -4.883000000    -1.727000000     0.737000000
O    -5.332000000    -0.820000000    -3.475000000
H    -4.977000000    -1.708000000    -3.522000000
H    -6.093000000    -0.897000000    -2.899000000
O    -1.688000000     3.431000000    -4.920000000
H    -2.606000000     3.267000000    -5.135000000
H    -1.588000000     3.101000000    -4.027000000
O    -1.948000000     5.026000000    -0.337000000
H    -2.404000000     4.187000000    -0.265000000
H    -1.124000000     4.814000000    -0.775000000
O     4.155000000     3.001000000     4.814000000
H     4.301000000     2.070000000     4.645000000
H     3.225000000     3.134000000     4.634000000
O     4.075000000     4.225000000     2.307000000
H     4.322000000     5.130000000     2.496000000
H     4.165000000     3.771000000     3.145000000
O     3.470000000    -0.908000000    -1.465000000
H     2.773000000    -0.968000000    -0.812000000
H     3.131000000    -0.301000000    -2.122000000
O     0.664000000    -3.301000000     3.316000000
H     1.004000000    -4.161000000     3.070000000
H    -0.229000000    -3.472000000     3.614000000
O     1.496000000    -3.451000000    -2.475000000
H     0.612000000    -3.473000000    -2.841000000
H     2.070000000    -3.383000000    -3.238000000
O    -4.604000000    -3.455000000    -3.101000000
H    -5.222000000    -4.185000000    -3.063000000
H    -4.154000000    -3.479000000    -2.256000000
O    -2.294000000     4.083000000     2.738000000
H    -1.388000000     3.866000000     2.518000000
H    -2.793000000     3.846000000     1.956000000
O     1.346000000     6.644000000    -5.273000000
H     1.560000000     7.546000000    -5.035000000
H     1.553000000     6.134000000    -4.490000000
O     1.342000000    -5.439000000    -0.734000000
H     1.294000000    -4.613000000    -1.215000000
H     0.651000000    -5.373000000    -0.076000000
O    -4.093000000     2.787000000    -5.895000000
H    -4.351000000     1.866000000    -5.939000000
H    -4.919000000     3.270000000    -5.934000000
O     3.684000000    -4.092000000     2.103000000
H     4.231000000    -3.533000000     1.552000000
H     3.131000000    -4.570000000     1.485000000
O    -6.297000000     2.887000000    -3.007000000
H    -5.516000000     2.583000000    -2.545000000
H    -6.960000000     2.221000000    -2.822000000
O     5.307000000     0.774000000     1.337000000
H     5.357000000    -0.110000000     0.976000000
H     5.756000000     1.322000000     0.694000000
O     2.542000000    -1.316000000     3.326000000
H     1.854000000    -1.971000000     3.452000000
H     2.787000000    -1.401000000     2.404000000
O    -3.226000000    -3.627000000    -0.909000000
H    -2.619000000    -4.212000000    -0.455000000
H    -3.547000000    -3.038000000    -0.227000000
O     3.864000000     2.723000000     0.005000000
H     4.076000000     1.885000000     0.416000000
H     3.671000000     3.308000000     0.739000000
O     2.071000000    -2.582000000     5.869000000
H     1.134000000    -2.387000000     5.893000000
H     2.490000000    -1.728000000     5.765000000
O     0.268000000    -3.796000000    -4.960000000
H    -0.649000000    -3.676000000    -4.713000000
H     0.414000000    -4.739000000    -4.883000000
O     5.168000000    -2.146000000     0.467000000
H     4.748000000    -1.939000000    -0.368000000
H     6.104000000    -2.039000000     0.299000000
O     0.430000000     3.985000000     2.311000000
H     0.996000000     4.254000000     1.588000000
H     0.976000000     3.403000000     2.839000000
O    -1.916000000     0.126000000    -4.326000000
H    -1.848000000     0.836000000    -3.687000000
H    -1.244000000     0.326000000    -4.978000000
O     4.881000000     4.757000000    -1.763000000
H     4.500000000     3.917000000    -1.506000000
H     5.190000000     5.141000000    -0.943000000
O    -1.741000000    -4.060000000     4.465000000
H    -1.359000000    -4.547000000     5.195000000
H    -2.309000000    -3.411000000     4.880000000
O    -1.734000000     7.757000000    -0.037000000
H    -1.550000000     6.818000000    -0.039000000
H    -2.344000000     7.883000000    -0.765000000
O    -4.230000000     1.515000000    -2.148000000
H    -4.507000000     0.782000000    -2.697000000
H    -3.322000000     1.677000000    -2.403000000
O     0.755000000     2.325000000    -5.651000000
H     1.218000000     3.162000000    -5.677000000
H    -0.169000000     2.565000000    -5.574000000
O     3.503000000    -4.669000000     4.732000000
H     3.167000000    -3.799000000     4.948000000
H     3.548000000    -4.677000000     3.775000000
O    -0.447000000     1.260000000     5.812000000
H    -0.054000000     1.638000000     6.599000000
H    -1.163000000     1.856000000     5.593000000
O    -1.710000000    -5.095000000     1.358000000
H    -1.080000000    -4.947000000     2.064000000
H    -1.986000000    -6.005000000     1.471000000
O     0.861000000    -6.025000000     2.594000000
H     1.122000000    -6.452000000     3.411000000
H     1.447000000    -6.395000000     1.934000000
O     5.216000000    -4.941000000    -0.666000000
H     5.043000000    -4.131000000    -0.186000000
H     5.414000000    -5.585000000     0.015000000
O     4.949000000     0.443000000     4.089000000
H     5.258000000     0.590000000     3.195000000
H     4.238000000    -0.191000000     3.996000000
O    -2.375000000    -4.172000000    -4.630000000
H    -2.953000000    -3.784000000    -3.972000000
H    -2.736000000    -5.046000000    -4.779000000
O    -3.627000000     2.755000000     0.257000000
H    -4.096000000     2.200000000    -0.366000000
H    -3.017000000     2.162000000     0.694000000
