158
-3048.00847
C     0.141000000    -0.378000000     1.499000000
H     0.201000000    -0.782000000     2.506000000
C    -0.921000000    -0.724000000     0.653000000
H    -1.598000000    -1.466000000     1.068000000
C    -1.044000000    -0.272000000    -0.646000000
H    -1.914000000    -0.561000000    -1.221000000
C    -0.095000000     0.665000000    -1.080000000
H    -0.139000000     1.108000000    -2.072000000
C     1.010000000     0.939000000    -0.341000000
H     1.819000000     1.439000000    -0.866000000
C     1.164000000     0.407000000     0.994000000
C     2.481000000     0.688000000     1.681000000
O     3.256000000     1.569000000     1.240000000
O     2.966000000     0.079000000     2.647000000
O     5.073000000     6.268000000     1.714000000
H     5.364000000     5.492000000     1.236000000
H     4.428000000     5.937000000     2.339000000
O    -1.737000000     2.190000000     1.056000000
H    -1.085000000     1.529000000     0.824000000
H    -2.578000000     1.742000000     0.962000000
O    -2.187000000    -6.187000000    -0.727000000
H    -2.835000000    -6.796000000    -1.082000000
H    -2.632000000    -5.764000000     0.007000000
O     3.555000000    -2.120000000     3.846000000
H     3.349000000    -2.783000000     3.186000000
H     3.291000000    -1.292000000     3.443000000
O     3.349000000     5.031000000     3.678000000
H     3.367000000     4.892000000     4.625000000
H     4.003000000     4.423000000     3.334000000
O    -5.079000000    -2.192000000     2.770000000
H    -4.887000000    -1.412000000     3.291000000
H    -5.914000000    -1.997000000     2.345000000
O    -5.544000000     0.877000000    -3.619000000
H    -6.124000000     0.451000000    -4.251000000
H    -5.787000000     0.495000000    -2.776000000
O     5.714000000     4.176000000    -0.070000000
H     6.441000000     4.225000000    -0.691000000
H     5.913000000     3.413000000     0.473000000
O    -2.165000000    -4.020000000    -5.487000000
H    -1.351000000    -3.762000000    -5.920000000
H    -1.965000000    -3.972000000    -4.552000000
O    -3.567000000     4.988000000    -3.578000000
H    -3.276000000     4.266000000    -3.020000000
H    -3.269000000     5.776000000    -3.125000000
O    -5.165000000    -1.378000000    -0.660000000
H    -4.639000000    -2.054000000    -0.233000000
H    -5.774000000    -1.085000000     0.018000000
O    -6.168000000    -4.617000000    -1.518000000
H    -6.841000000    -4.242000000    -0.950000000
H    -5.910000000    -5.428000000    -1.081000000
O    -3.740000000    -3.561000000     0.894000000
H    -4.236000000    -3.004000000     1.494000000
H    -3.079000000    -3.978000000     1.446000000
O     5.520000000     0.570000000     3.650000000
H     4.617000000     0.352000000     3.420000000
H     6.047000000     0.165000000     2.962000000
O    -3.067000000     2.546000000    -2.250000000
H    -2.283000000     2.268000000    -1.775000000
H    -3.264000000     1.814000000    -2.835000000
O     3.250000000    -4.001000000     2.077000000
H     2.426000000    -4.368000000     1.758000000
H     3.848000000    -4.747000000     2.110000000
O    -2.614000000    -0.614000000     4.123000000
H    -2.250000000     0.269000000     4.063000000
H    -2.876000000    -0.703000000     5.039000000
O    -2.832000000    -0.042000000    -3.901000000
H    -3.762000000    -0.205000000    -4.057000000
H    -2.472000000    -0.902000000    -3.682000000
O    -6.030000000    -1.806000000    -5.048000000
H    -5.694000000    -2.446000000    -5.676000000
H    -5.592000000    -2.025000000    -4.226000000
O     4.219000000     4.409000000    -2.494000000
H     4.431000000     4.204000000    -3.405000000
H     4.913000000     3.988000000    -1.986000000
O     4.990000000     3.111000000     2.640000000
H     4.268000000     2.746000000     2.129000000
H     5.432000000     2.347000000     3.011000000
O     1.444000000     0.493000000    -6.581000000
H     1.931000000     1.032000000    -5.957000000
H     0.887000000     1.114000000    -7.051000000
O    -5.987000000     2.986000000    -0.926000000
H    -6.667000000     2.335000000    -1.098000000
H    -5.174000000     2.564000000    -1.204000000
O     5.788000000    -2.162000000     5.429000000
H     6.513000000    -2.470000000     4.886000000
H     5.051000000    -2.084000000     4.823000000
O     0.702000000    -4.065000000     0.188000000
H     0.791000000    -4.563000000    -0.625000000
H     0.906000000    -3.163000000    -0.059000000
O     1.537000000     3.190000000    -3.562000000
H     0.950000000     3.692000000    -4.128000000
H     2.112000000     3.848000000    -3.170000000
O     2.137000000     1.779000000     4.815000000
H     2.196000000     0.981000000     5.341000000
H     2.221000000     1.476000000     3.911000000
O    -0.505000000    -2.207000000    -7.114000000
H    -0.049000000    -1.778000000    -7.838000000
H    -1.085000000    -1.531000000    -6.762000000
O     4.137000000    -2.013000000     0.258000000
H     3.775000000    -2.708000000     0.808000000
H     3.479000000    -1.881000000    -0.425000000
O     3.067000000     2.679000000    -5.737000000
H     2.414000000     2.925000000    -5.081000000
H     3.830000000     3.217000000    -5.529000000
O     0.252000000    -2.151000000     7.375000000
H     0.284000000    -3.106000000     7.433000000
H    -0.303000000    -1.975000000     6.616000000
O     5.506000000     0.306000000     0.223000000
H     5.165000000    -0.567000000     0.416000000
H     4.821000000     0.903000000     0.523000000
O     1.691000000    -1.773000000    -1.122000000
H     1.546000000    -1.481000000    -2.022000000
H     1.162000000    -1.179000000    -0.589000000
O     4.964000000     1.963000000     6.064000000
H     5.824000000     1.546000000     6.018000000
H     4.434000000     1.492000000     5.422000000
O     3.110000000     4.077000000     6.129000000
H     2.535000000     3.382000000     5.809000000
H     3.857000000     3.614000000     6.508000000
O    -0.269000000     4.357000000    -0.662000000
H     0.652000000     4.424000000    -0.409000000
H    -0.612000000     3.641000000    -0.128000000
O    -1.556000000    -4.682000000     1.985000000
H    -1.414000000    -5.319000000     2.686000000
H    -0.763000000    -4.732000000     1.452000000
O     2.217000000    -3.939000000     5.433000000
H     1.649000000    -3.231000000     5.736000000
H     2.803000000    -3.523000000     4.801000000
O     7.102000000     2.010000000    -1.277000000
H     7.370000000     1.480000000    -2.027000000
H     6.446000000     1.476000000    -0.828000000
O    -1.783000000    -4.066000000    -2.630000000
H    -1.499000000    -4.825000000    -2.121000000
H    -2.161000000    -3.471000000    -1.983000000
O    -0.479000000    -2.635000000     4.778000000
H    -0.519000000    -3.434000000     4.251000000
H    -0.954000000    -1.984000000     4.262000000
O     1.420000000    -1.710000000    -4.123000000
H     1.133000000    -1.130000000    -4.829000000
H     1.363000000    -2.589000000    -4.497000000
O    -1.813000000     4.126000000     3.223000000
H    -1.385000000     4.885000000     2.825000000
H    -2.043000000     3.566000000     2.482000000
O    -0.669000000     1.559000000     4.017000000
H    -0.879000000     2.457000000     3.764000000
H     0.148000000     1.634000000     4.511000000
O    -2.491000000    -0.271000000    -6.815000000
H    -2.471000000    -0.180000000    -5.862000000
H    -2.152000000     0.562000000    -7.142000000
O     2.515000000     3.992000000     0.011000000
H     3.158000000     4.141000000    -0.683000000
H     2.782000000     3.165000000     0.412000000
O    -4.481000000    -2.671000000    -3.008000000
H    -4.556000000    -3.598000000    -2.781000000
H    -4.891000000    -2.211000000    -2.276000000
O     1.937000000    -0.057000000     6.771000000
H     1.161000000    -0.603000000     6.890000000
H     2.637000000    -0.533000000     7.218000000
