158
-3043.63868
C    -1.096000000     0.948000000    -0.275000000
H    -2.032000000     1.499000000    -0.324000000
C    -0.711000000    -0.044000000    -1.163000000
H    -1.339000000    -0.233000000    -2.031000000
C     0.339000000    -0.899000000    -0.770000000
H     0.585000000    -1.678000000    -1.478000000
C     1.080000000    -0.628000000     0.389000000
H     1.938000000    -1.285000000     0.503000000
C     0.726000000     0.405000000     1.232000000
H     1.284000000     0.519000000     2.157000000
C    -0.322000000     1.249000000     0.819000000
C    -0.791000000     2.318000000     1.766000000
O    -1.589000000     3.182000000     1.481000000
O    -0.267000000     2.373000000     2.872000000
O     2.354000000     0.172000000     5.764000000
H     2.239000000     1.040000000     5.379000000
H     2.308000000    -0.429000000     5.020000000
O    -1.864000000     4.188000000    -1.903000000
H    -2.130000000     5.078000000    -2.135000000
H    -2.149000000     4.082000000    -0.995000000
O    -4.621000000     5.175000000    -1.613000000
H    -5.277000000     5.678000000    -1.129000000
H    -4.976000000     4.287000000    -1.645000000
O     0.928000000    -4.152000000     2.147000000
H     0.397000000    -4.178000000     2.943000000
H     1.772000000    -4.519000000     2.411000000
O     5.640000000    -2.192000000    -0.582000000
H     5.317000000    -2.922000000    -0.054000000
H     5.004000000    -1.491000000    -0.438000000
O    -1.575000000    -1.868000000     1.522000000
H    -0.983000000    -1.458000000     0.893000000
H    -1.231000000    -1.612000000     2.378000000
O     0.192000000     7.110000000    -1.417000000
H     0.933000000     6.604000000    -1.083000000
H    -0.575000000     6.710000000    -1.008000000
O    -0.311000000    -0.588000000     3.919000000
H    -0.753000000     0.259000000     3.973000000
H    -0.132000000    -0.824000000     4.829000000
O    -4.084000000     3.649000000     1.280000000
H    -3.138000000     3.514000000     1.339000000
H    -4.442000000     2.773000000     1.135000000
O     2.247000000     0.434000000    -2.741000000
H     1.558000000     0.848000000    -2.221000000
H     3.054000000     0.616000000    -2.259000000
O     4.273000000     2.043000000     1.735000000
H     3.321000000     2.123000000     1.794000000
H     4.590000000     2.307000000     2.599000000
O    -5.006000000     1.179000000     0.578000000
H    -5.017000000     0.576000000     1.322000000
H    -5.131000000     0.618000000    -0.187000000
O     2.208000000     6.379000000     3.980000000
H     2.190000000     5.567000000     3.474000000
H     1.308000000     6.492000000     4.284000000
O    -4.130000000     5.282000000     4.510000000
H    -4.957000000     4.887000000     4.232000000
H    -4.345000000     6.200000000     4.671000000
O    -1.873000000     5.179000000     3.188000000
H    -1.765000000     4.533000000     2.490000000
H    -2.724000000     4.974000000     3.575000000
O    -5.050000000     0.425000000    -2.564000000
H    -5.606000000     0.165000000    -3.299000000
H    -4.399000000     1.010000000    -2.952000000
O    -4.978000000     1.804000000     5.250000000
H    -4.984000000     1.151000000     5.950000000
H    -4.066000000     1.836000000     4.960000000
O    -4.174000000    -2.761000000     0.728000000
H    -3.357000000    -2.479000000     1.139000000
H    -4.141000000    -3.717000000     0.761000000
O    -1.098000000     1.883000000     7.362000000
H    -1.099000000     2.839000000     7.302000000
H    -1.754000000     1.684000000     8.030000000
O     4.584000000    -3.245000000     3.111000000
H     4.237000000    -3.590000000     2.288000000
H     5.113000000    -2.491000000     2.851000000
O     2.055000000     3.422000000     2.565000000
H     2.396000000     3.337000000     3.456000000
H     1.140000000     3.150000000     2.633000000
O    -2.201000000     1.797000000     4.688000000
H    -1.937000000     2.084000000     5.562000000
H    -1.586000000     2.232000000     4.097000000
O     4.367000000     0.520000000    -0.672000000
H     4.223000000     0.683000000     0.260000000
H     4.911000000     1.253000000    -0.962000000
O     0.582000000    -4.925000000    -3.569000000
H    -0.191000000    -4.888000000    -3.004000000
H     1.074000000    -4.133000000    -3.352000000
O     0.739000000     5.329000000     0.612000000
H     1.539000000     5.094000000     1.081000000
H     0.054000000     4.809000000     1.033000000
O    -4.771000000     6.308000000     1.557000000
H    -4.717000000     6.280000000     2.512000000
H    -4.531000000     5.425000000     1.277000000
O     0.124000000    -4.700000000    -0.565000000
H     0.304000000    -4.505000000     0.355000000
H    -0.384000000    -3.949000000    -0.873000000
O     4.468000000    -4.513000000     0.805000000
H     3.869000000    -4.944000000     0.195000000
H     5.162000000    -5.155000000     0.953000000
O    -3.090000000     2.312000000    -3.627000000
H    -3.816000000     2.906000000    -3.818000000
H    -2.484000000     2.836000000    -3.103000000
O     2.419000000    -5.834000000    -1.282000000
H     2.081000000    -6.710000000    -1.472000000
H     1.645000000    -5.324000000    -1.046000000
O     5.343000000    -0.387000000    -3.163000000
H     5.511000000     0.535000000    -3.358000000
H     5.601000000    -0.489000000    -2.247000000
O     4.315000000    -3.778000000    -3.499000000
H     4.899000000    -3.207000000    -2.999000000
H     3.604000000    -3.204000000    -3.783000000
O    -3.796000000    -5.185000000    -2.204000000
H    -4.211000000    -5.811000000    -1.610000000
H    -3.939000000    -5.552000000    -3.076000000
O    -1.020000000    -7.053000000    -0.128000000
H    -1.533000000    -7.177000000    -0.927000000
H    -0.572000000    -6.217000000    -0.259000000
O    -1.060000000    -5.604000000    -5.618000000
H    -0.450000000    -5.831000000    -4.916000000
H    -0.547000000    -5.057000000    -6.213000000
O     1.762000000    -2.309000000    -3.639000000
H     0.961000000    -2.091000000    -4.116000000
H     1.930000000    -1.542000000    -3.090000000
O    -6.307000000     2.950000000    -2.326000000
H    -5.997000000     2.134000000    -1.933000000
H    -7.261000000     2.877000000    -2.309000000
O    -0.631000000     1.860000000    -4.867000000
H     0.134000000     1.985000000    -4.304000000
H    -1.378000000     2.050000000    -4.300000000
O     1.927000000     0.171000000    -5.516000000
H     2.124000000     0.247000000    -4.583000000
H     2.630000000     0.654000000    -5.950000000
O     1.087000000     2.839000000    -2.358000000
H     0.734000000     3.706000000    -2.159000000
H     2.034000000     2.938000000    -2.261000000
O    -2.640000000    -3.982000000     2.955000000
H    -2.179000000    -4.118000000     3.783000000
H    -2.096000000    -3.355000000     2.478000000
O    -1.602000000     7.772000000     1.815000000
H    -2.193000000     7.330000000     1.206000000
H    -1.480000000     7.145000000     2.528000000
O     1.299000000     2.534000000     5.136000000
H     0.750000000     2.356000000     4.372000000
H     0.714000000     2.970000000     5.755000000
O    -2.551000000     6.888000000    -0.870000000
H    -3.460000000     6.645000000    -1.046000000
H    -2.539000000     7.842000000    -0.947000000
O    -1.690000000    -3.516000000    -2.681000000
H    -2.239000000    -2.749000000    -2.847000000
H    -2.307000000    -4.201000000    -2.425000000
O     2.476000000    -1.778000000     3.959000000
H     3.150000000    -2.411000000     3.710000000
H     1.654000000    -2.263000000     3.887000000
O     5.551000000    -0.819000000     2.359000000
H     6.343000000    -0.451000000     1.966000000
H     4.860000000    -0.197000000     2.132000000
O    -0.307000000     6.641000000     4.863000000
H    -0.743000000     7.429000000     4.539000000
H    -0.804000000     5.917000000     4.482000000
