158
-3019.40042
C    -0.990000000     1.009000000    -0.456000000
H    -1.578000000     1.838000000    -0.841000000
C     0.094000000     0.554000000    -1.213000000
H     0.293000000     1.077000000    -2.145000000
C     0.949000000    -0.441000000    -0.724000000
H     1.849000000    -0.694000000    -1.149000000
C     0.594000000    -1.134000000     0.454000000
H     1.138000000    -2.004000000     0.812000000
C    -0.571000000    -0.725000000     1.160000000
H    -0.680000000    -1.195000000     2.134000000
C    -1.287000000     0.419000000     0.813000000
C    -2.263000000     1.145000000     1.780000000
O    -2.737000000     2.294000000     1.511000000
O    -2.563000000     0.630000000     2.853000000
O     3.202000000    -2.121000000     3.185000000
H     2.935000000    -1.319000000     2.735000000
H     3.310000000    -2.763000000     2.484000000
O    -3.490000000    -0.702000000    -2.311000000
H    -4.219000000    -1.080000000    -2.802000000
H    -3.780000000    -0.720000000    -1.399000000
O     0.797000000     4.650000000    -6.205000000
H     1.028000000     4.531000000    -7.127000000
H     1.163000000     3.883000000    -5.765000000
O     1.193000000     1.421000000     4.392000000
H     0.259000000     1.624000000     4.351000000
H     1.402000000     1.078000000     3.523000000
O    -2.721000000     5.756000000     4.371000000
H    -2.365000000     5.702000000     3.484000000
H    -3.448000000     5.132000000     4.375000000
O    -4.468000000     1.823000000     4.053000000
H    -4.767000000     0.974000000     4.380000000
H    -3.771000000     1.608000000     3.433000000
O    -2.716000000     6.352000000     1.416000000
H    -3.006000000     5.707000000     0.771000000
H    -1.768000000     6.404000000     1.294000000
O    -4.371000000    -1.236000000     3.022000000
H    -4.187000000    -1.717000000     3.829000000
H    -3.609000000    -0.668000000     2.903000000
O    -4.922000000     4.101000000     5.302000000
H    -4.945000000     3.263000000     4.839000000
H    -5.808000000     4.452000000     5.207000000
O     5.462000000     2.040000000    -2.503000000
H     6.202000000     2.429000000    -2.037000000
H     5.167000000     2.728000000    -3.100000000
O    -1.043000000    -0.592000000     4.536000000
H    -1.088000000    -0.321000000     5.453000000
H    -1.621000000     0.018000000     4.078000000
O    -2.866000000    -4.580000000    -0.420000000
H    -2.262000000    -3.865000000    -0.620000000
H    -3.015000000    -5.010000000    -1.262000000
O    -2.639000000    -0.180000000     7.155000000
H    -3.499000000    -0.343000000     6.766000000
H    -2.727000000     0.670000000     7.584000000
O     5.600000000    -3.294000000     1.238000000
H     4.657000000    -3.386000000     1.376000000
H     5.834000000    -4.035000000     0.680000000
O    -7.393000000    -0.502000000     2.059000000
H    -6.790000000     0.233000000     1.946000000
H    -6.947000000    -1.086000000     2.672000000
O    -5.238000000    -0.745000000     6.300000000
H    -5.346000000    -1.393000000     6.997000000
H    -5.756000000     0.007000000     6.590000000
O     2.574000000    -1.898000000    -3.781000000
H     2.053000000    -1.229000000    -4.224000000
H     3.395000000    -1.457000000    -3.563000000
O     2.618000000    -4.220000000    -5.459000000
H     2.483000000    -3.426000000    -4.943000000
H     2.745000000    -3.905000000    -6.354000000
O    -3.255000000     4.208000000    -0.082000000
H    -2.948000000     3.466000000     0.439000000
H    -3.411000000     3.841000000    -0.952000000
O    -0.937000000     3.751000000     2.562000000
H    -0.392000000     3.988000000     1.812000000
H    -1.656000000     3.243000000     2.186000000
O     2.308000000     0.437000000     2.008000000
H     3.133000000     0.631000000     1.564000000
H     1.662000000     0.385000000     1.304000000
O     0.512000000    -2.623000000     3.929000000
H    -0.004000000    -1.826000000     4.054000000
H     1.384000000    -2.309000000     3.690000000
O    -2.176000000     2.952000000    -5.252000000
H    -1.963000000     2.257000000    -5.874000000
H    -1.670000000     3.706000000    -5.553000000
O     2.319000000     2.652000000    -4.253000000
H     2.341000000     1.759000000    -4.596000000
H     3.211000000     2.979000000    -4.378000000
O     2.568000000     3.771000000    -0.691000000
H     1.888000000     3.893000000    -1.353000000
H     3.379000000     4.029000000    -1.130000000
O    -3.772000000     3.089000000    -2.699000000
H    -4.274000000     2.324000000    -2.980000000
H    -3.550000000     3.542000000    -3.513000000
O     5.361000000    -1.510000000    -1.225000000
H     4.796000000    -2.273000000    -1.099000000
H     6.075000000    -1.830000000    -1.778000000
O    -7.628000000     3.240000000     0.319000000
H    -7.524000000     4.183000000     0.197000000
H    -6.873000000     2.982000000     0.849000000
O     5.311000000    -0.128000000    -4.772000000
H     5.558000000     0.500000000    -4.094000000
H     4.558000000     0.273000000    -5.207000000
O     3.473000000     0.897000000    -6.301000000
H     2.565000000     0.640000000    -6.145000000
H     3.452000000     1.356000000    -7.141000000
O     0.326000000     4.241000000    -2.910000000
H    -0.444000000     4.569000000    -3.374000000
H     0.719000000     3.611000000    -3.514000000
O     3.805000000    -3.785000000    -1.718000000
H     2.881000000    -3.778000000    -1.968000000
H     4.215000000    -4.394000000    -2.333000000
O    -1.218000000    -2.367000000    -1.512000000
H    -2.010000000    -1.991000000    -1.895000000
H    -0.821000000    -1.646000000    -1.025000000
O     1.103000000    -0.036000000    -5.014000000
H     0.200000000    -0.179000000    -4.729000000
H     1.121000000    -0.346000000    -5.919000000
O     0.024000000    -5.542000000     3.644000000
H     0.172000000    -4.643000000     3.349000000
H    -0.922000000    -5.664000000     3.576000000
O     1.634000000    -5.393000000    -0.320000000
H     1.220000000    -4.888000000    -1.020000000
H     2.275000000    -5.944000000    -0.768000000
O     1.060000000     4.996000000     1.206000000
H     1.303000000     5.869000000     1.512000000
H     1.793000000     4.724000000     0.652000000
O    -4.869000000    -1.169000000     0.096000000
H    -5.422000000    -1.859000000     0.463000000
H    -4.390000000    -0.821000000     0.848000000
O     0.887000000    -3.793000000    -2.494000000
H     1.459000000    -3.057000000    -2.710000000
H     0.085000000    -3.385000000    -2.166000000
O     6.272000000    -0.170000000     1.784000000
H     5.778000000    -0.784000000     1.240000000
H     5.909000000    -0.282000000     2.662000000
O     3.287000000    -4.323000000     1.514000000
H     2.867000000    -4.798000000     0.797000000
H     3.322000000    -4.954000000     2.233000000
O    -1.595000000    -0.199000000    -4.298000000
H    -2.242000000    -0.043000000    -3.610000000
H    -1.710000000     0.532000000    -4.905000000
O    -1.379000000     2.535000000     5.163000000
H    -1.138000000     3.093000000     4.423000000
H    -2.310000000     2.709000000     5.301000000
O    -7.302000000     0.528000000    -0.954000000
H    -6.350000000     0.495000000    -0.864000000
H    -7.555000000     1.346000000    -0.526000000
O    -2.638000000    -3.035000000     4.579000000
H    -2.247000000    -3.258000000     3.734000000
H    -2.005000000    -2.443000000     4.987000000
O     3.864000000     1.423000000     0.039000000
H     3.412000000     2.233000000    -0.198000000
H     4.459000000     1.259000000    -0.693000000
O    -5.555000000     2.353000000     1.769000000
H    -5.387000000     2.326000000     2.711000000
H    -4.687000000     2.437000000     1.373000000
O     1.938000000    -3.294000000     6.312000000
H     1.575000000    -4.163000000     6.479000000
H     1.636000000    -3.073000000     5.431000000
