158
-3010.55943
C    -1.284000000     0.791000000    -0.393000000
H    -2.136000000     1.396000000    -0.695000000
C     0.075000000     1.101000000    -0.790000000
H     0.360000000     1.988000000    -1.351000000
C     1.141000000     0.312000000    -0.352000000
H     2.196000000     0.658000000    -0.495000000
C     0.875000000    -0.856000000     0.293000000
H     1.721000000    -1.480000000     0.570000000
C    -0.403000000    -1.227000000     0.642000000
H    -0.598000000    -2.118000000     1.233000000
C    -1.482000000    -0.343000000     0.431000000
C    -2.838000000    -0.659000000     1.049000000
O    -3.769000000     0.076000000     0.772000000
O    -2.925000000    -1.239000000     2.082000000
O     2.558000000     3.807000000     1.292000000
H     2.463000000     4.751000000     1.166000000
H     2.327000000     3.428000000     0.444000000
O     3.074000000    -0.398000000     3.585000000
H     2.295000000    -0.696000000     4.054000000
H     3.807000000    -0.680000000     4.133000000
O    -5.830000000    -0.800000000    -0.619000000
H    -5.147000000    -0.342000000    -0.130000000
H    -5.376000000    -1.172000000    -1.375000000
O     6.067000000     1.799000000     2.967000000
H     6.355000000     0.893000000     3.081000000
H     5.114000000     1.741000000     2.906000000
O     5.918000000    -1.193000000    -4.905000000
H     6.421000000    -1.169000000    -4.091000000
H     5.235000000    -0.534000000    -4.784000000
O     2.871000000     6.409000000    -2.673000000
H     3.697000000     6.579000000    -3.126000000
H     2.777000000     5.457000000    -2.695000000
O    -2.268000000     2.232000000    -4.551000000
H    -1.483000000     2.780000000    -4.545000000
H    -2.039000000     1.492000000    -5.114000000
O    -8.206000000     0.784000000     2.320000000
H    -7.295000000     0.509000000     2.423000000
H    -8.717000000     0.056000000     2.674000000
O    -5.835000000     0.440000000    -3.795000000
H    -4.988000000     0.159000000    -4.141000000
H    -6.366000000    -0.356000000    -3.785000000
O    -2.035000000     0.462000000     4.311000000
H    -2.661000000     1.020000000     3.849000000
H    -2.177000000    -0.411000000     3.945000000
O    -8.450000000    -1.083000000    -1.305000000
H    -7.554000000    -0.995000000    -0.981000000
H    -8.557000000    -0.356000000    -1.918000000
O    -2.985000000     6.105000000     0.427000000
H    -3.540000000     6.775000000     0.028000000
H    -2.546000000     5.686000000    -0.313000000
O    -5.815000000    -1.170000000     2.555000000
H    -6.293000000    -1.700000000     1.917000000
H    -4.932000000    -1.099000000     2.193000000
O    -1.804000000     4.670000000    -1.862000000
H    -1.318000000     4.570000000    -2.680000000
H    -2.538000000     4.062000000    -1.943000000
O    -3.571000000    -3.863000000     1.247000000
H    -4.240000000    -3.922000000     0.564000000
H    -3.357000000    -2.932000000     1.292000000
O    -5.574000000     0.600000000     4.563000000
H    -5.148000000     1.368000000     4.183000000
H    -5.796000000     0.053000000     3.809000000
O    -2.127000000    -2.793000000     3.988000000
H    -3.061000000    -2.673000000     4.161000000
H    -1.987000000    -2.387000000     3.133000000
O    -2.778000000    -6.217000000     2.394000000
H    -3.068000000    -5.368000000     2.061000000
H    -2.704000000    -6.767000000     1.614000000
O     0.558000000     4.537000000    -0.672000000
H    -0.225000000     4.577000000    -1.221000000
H     0.347000000     5.081000000     0.087000000
O     7.514000000    -0.856000000     0.361000000
H     7.757000000    -1.434000000    -0.362000000
H     6.643000000    -0.534000000     0.129000000
O     5.022000000    -0.032000000    -0.224000000
H     4.573000000    -0.632000000     0.371000000
H     4.581000000    -0.154000000    -1.065000000
O     6.230000000     2.868000000    -3.880000000
H     6.374000000     3.768000000    -3.588000000
H     7.109000000     2.494000000    -3.947000000
O    -4.395000000     3.522000000    -2.317000000
H    -5.191000000     3.142000000    -1.947000000
H    -3.866000000     2.767000000    -2.575000000
O    -6.503000000     1.917000000    -1.745000000
H    -6.227000000     1.274000000    -2.398000000
H    -6.701000000     1.397000000    -0.966000000
O    -4.732000000    -1.837000000     5.603000000
H    -4.879000000    -0.985000000     5.192000000
H    -5.579000000    -2.067000000     5.985000000
O     6.339000000    -3.671000000     2.352000000
H     5.646000000    -4.309000000     2.181000000
H     5.965000000    -2.833000000     2.081000000
O     2.628000000     3.677000000    -2.588000000
H     1.899000000     3.747000000    -1.971000000
H     3.061000000     2.856000000    -2.355000000
O     5.933000000    -3.824000000    -1.773000000
H     5.396000000    -4.486000000    -1.337000000
H     5.304000000    -3.282000000    -2.249000000
O     2.381000000    -4.820000000     3.335000000
H     1.426000000    -4.877000000     3.300000000
H     2.559000000    -4.227000000     4.065000000
O     3.717000000     0.611000000    -5.314000000
H     3.238000000    -0.210000000    -5.428000000
H     3.197000000     1.260000000    -5.788000000
O     0.331000000     0.795000000    -5.873000000
H    -0.104000000     0.976000000    -6.706000000
H     0.859000000     1.575000000    -5.704000000
O     3.778000000    -3.268000000    -3.768000000
H     4.225000000    -3.959000000    -4.256000000
H     3.346000000    -2.741000000    -4.440000000
O     0.460000000     1.486000000     5.598000000
H    -0.223000000     1.026000000     5.109000000
H     0.386000000     2.397000000     5.312000000
O     6.311000000     2.396000000    -0.528000000
H     5.983000000     1.689000000     0.028000000
H     5.746000000     2.375000000    -1.300000000
O     4.110000000     1.255000000    -2.693000000
H     4.796000000     1.734000000    -3.159000000
H     3.610000000     0.821000000    -3.385000000
O     0.537000000    -4.886000000    -3.523000000
H    -0.380000000    -4.761000000    -3.769000000
H     0.743000000    -4.131000000    -2.973000000
O     2.493000000    -1.853000000    -5.839000000
H     1.560000000    -1.640000000    -5.806000000
H     2.580000000    -2.432000000    -6.596000000
O    -0.155000000     4.242000000    -4.106000000
H     0.712000000     3.856000000    -4.231000000
H    -0.087000000     5.115000000    -4.494000000
O    -4.103000000    -2.080000000    -2.307000000
H    -3.414000000    -1.773000000    -2.895000000
H    -4.016000000    -3.034000000    -2.314000000
O     1.114000000    -2.444000000    -2.429000000
H     1.053000000    -1.663000000    -1.880000000
H     2.017000000    -2.443000000    -2.748000000
O     3.227000000     2.589000000     3.512000000
H     2.779000000     3.059000000     2.810000000
H     2.974000000     1.674000000     3.388000000
O     4.425000000    -5.517000000     1.597000000
H     4.078000000    -6.155000000     0.973000000
H     3.737000000    -5.426000000     2.255000000
O    -1.495000000    -1.184000000    -3.507000000
H    -0.868000000    -0.702000000    -4.047000000
H    -0.963000000    -1.829000000    -3.041000000
O    -2.211000000     4.230000000     2.295000000
H    -2.681000000     4.834000000     1.720000000
H    -1.301000000     4.278000000     2.001000000
O    -0.438000000    -5.233000000     3.346000000
H    -1.058000000    -5.771000000     2.853000000
H    -0.924000000    -4.435000000     3.552000000
O     3.942000000    -2.026000000     1.318000000
H     3.787000000    -2.956000000     1.482000000
H     3.414000000    -1.575000000     1.978000000
O     0.159000000    -1.549000000     4.464000000
H    -0.719000000    -1.801000000     4.177000000
H     0.160000000    -1.713000000     5.407000000
O    -3.650000000     2.087000000     2.778000000
H    -3.126000000     2.785000000     2.385000000
H    -3.560000000     1.351000000     2.173000000
