158
-3036.63761
C    -0.984000000     1.029000000    -0.422000000
H    -1.611000000     1.675000000    -1.032000000
C     0.293000000     0.900000000    -0.956000000
H     0.737000000     1.332000000    -1.849000000
C     1.087000000    -0.154000000    -0.484000000
H     2.055000000    -0.353000000    -1.062000000
C     0.752000000    -0.854000000     0.680000000
H     1.489000000    -1.533000000     1.099000000
C    -0.539000000    -0.692000000     1.294000000
H    -0.819000000    -1.215000000     2.205000000
C    -1.462000000     0.221000000     0.660000000
C    -2.817000000     0.453000000     1.245000000
O    -3.594000000     1.277000000     0.791000000
O    -3.102000000    -0.143000000     2.237000000
O    -6.792000000    -3.200000000     0.901000000
H    -6.404000000    -2.785000000     1.671000000
H    -6.052000000    -3.359000000     0.315000000
O     5.687000000    -0.082000000     1.905000000
H     4.995000000    -0.606000000     2.308000000
H     5.480000000     0.819000000     2.153000000
O     1.654000000    -4.067000000     1.473000000
H     0.713000000    -4.003000000     1.306000000
H     2.061000000    -3.846000000     0.636000000
O     4.028000000     3.359000000    -3.588000000
H     4.649000000     3.441000000    -4.312000000
H     4.249000000     4.080000000    -3.000000000
O    -1.247000000     4.082000000    -1.738000000
H    -1.327000000     5.004000000    -1.983000000
H    -0.802000000     3.675000000    -2.481000000
O     2.115000000    -1.723000000     3.636000000
H     1.436000000    -1.060000000     3.760000000
H     1.650000000    -2.557000000     3.704000000
O    -3.389000000     4.063000000    -4.932000000
H    -3.688000000     4.306000000    -4.056000000
H    -3.288000000     3.112000000    -4.895000000
O    -4.652000000     1.624000000     6.666000000
H    -5.428000000     2.149000000     6.464000000
H    -4.227000000     1.490000000     5.819000000
O     2.938000000     1.881000000    -5.466000000
H     3.107000000     2.376000000    -6.268000000
H     3.255000000     2.447000000    -4.763000000
O    -3.026000000     1.127000000     4.469000000
H    -3.072000000     0.514000000     3.736000000
H    -3.089000000     1.992000000     4.064000000
O    -2.862000000     3.868000000     0.608000000
H    -3.100000000     2.940000000     0.601000000
H    -2.249000000     3.963000000    -0.120000000
O    -3.603000000     3.474000000     3.141000000
H    -3.325000000     3.561000000     2.229000000
H    -3.885000000     4.355000000     3.390000000
O     4.287000000    -2.918000000     2.414000000
H     3.763000000    -2.534000000     3.117000000
H     3.659000000    -3.080000000     1.709000000
O    -0.762000000     5.093000000     1.998000000
H    -0.778000000     5.936000000     1.544000000
H    -1.448000000     4.579000000     1.573000000
O    -3.165000000    -2.884000000     2.492000000
H    -4.070000000    -3.093000000     2.722000000
H    -3.175000000    -1.945000000     2.309000000
O    -0.390000000    -3.257000000     4.469000000
H    -0.313000000    -2.496000000     5.045000000
H    -1.231000000    -3.139000000     4.028000000
O    -3.208000000    -1.149000000     6.318000000
H    -3.329000000    -0.206000000     6.213000000
H    -4.014000000    -1.534000000     5.975000000
O    -0.802000000     1.626000000     5.967000000
H    -0.596000000     2.023000000     6.814000000
H    -1.720000000     1.851000000     5.815000000
O     2.145000000    -0.208000000     6.573000000
H     1.507000000    -0.776000000     7.005000000
H     1.862000000    -0.181000000     5.659000000
O     7.555000000    -0.619000000    -1.473000000
H     6.771000000    -0.137000000    -1.737000000
H     7.910000000    -0.114000000    -0.741000000
O     3.326000000    -6.247000000     2.298000000
H     2.790000000    -5.522000000     1.979000000
H     3.746000000    -5.905000000     3.088000000
O    -4.754000000     0.771000000    -1.387000000
H    -4.294000000     0.994000000    -0.577000000
H    -5.601000000     0.434000000    -1.095000000
O     0.336000000     2.822000000     2.914000000
H     0.984000000     2.412000000     2.341000000
H     0.077000000     3.619000000     2.452000000
O    -4.422000000     4.228000000    -2.063000000
H    -4.784000000     3.460000000    -2.505000000
H    -4.147000000     3.904000000    -1.206000000
O    -2.902000000    -1.533000000    -4.803000000
H    -3.818000000    -1.724000000    -5.004000000
H    -2.862000000    -1.533000000    -3.846000000
O    -1.047000000    -3.957000000     0.758000000
H    -1.802000000    -3.403000000     0.956000000
H    -0.820000000    -3.738000000    -0.146000000
O     0.388000000     0.982000000    -5.778000000
H     1.335000000     1.127000000    -5.770000000
H     0.249000000     0.348000000    -6.481000000
O     5.583000000     1.178000000    -2.074000000
H     4.786000000     1.595000000    -2.400000000
H     5.990000000     1.842000000    -1.516000000
O     1.401000000    -2.682000000    -4.823000000
H     1.093000000    -2.683000000    -3.916000000
H     1.446000000    -3.608000000    -5.061000000
O    -8.174000000     3.622000000     0.623000000
H    -7.354000000     3.156000000     0.789000000
H    -8.584000000     3.138000000    -0.093000000
O    -2.484000000     1.485000000    -5.049000000
H    -2.857000000     0.680000000    -4.690000000
H    -1.553000000     1.291000000    -5.156000000
O     3.084000000    -0.866000000    -6.120000000
H     2.511000000    -1.463000000    -5.638000000
H     3.167000000    -0.101000000    -5.549000000
O    -0.800000000    -2.470000000    -1.814000000
H    -1.649000000    -2.043000000    -1.931000000
H    -0.218000000    -1.769000000    -1.520000000
O     5.859000000    -2.803000000    -0.096000000
H     5.398000000    -2.115000000     0.385000000
H     6.472000000    -2.331000000    -0.660000000
O    -5.803000000     2.303000000     1.642000000
H    -5.160000000     1.828000000     1.116000000
H    -5.310000000     2.616000000     2.399000000
O     0.447000000     3.167000000    -3.806000000
H     1.210000000     3.663000000    -4.103000000
H     0.413000000     2.408000000    -4.389000000
O     2.206000000     2.429000000     1.046000000
H     2.011000000     1.666000000     0.503000000
H     2.222000000     3.163000000     0.431000000
O    -3.475000000    -1.722000000    -2.049000000
H    -3.988000000    -2.119000000    -1.345000000
H    -3.662000000    -0.786000000    -1.983000000
O    -5.204000000     2.150000000    -3.645000000
H    -5.604000000     1.459000000    -4.173000000
H    -5.037000000     1.738000000    -2.798000000
O     3.086000000    -3.606000000    -0.968000000
H     2.748000000    -3.547000000    -1.862000000
H     4.027000000    -3.456000000    -1.058000000
O    -7.480000000     0.637000000     2.972000000
H    -6.934000000     1.135000000     2.364000000
H    -8.283000000     0.458000000     2.482000000
O     2.138000000     3.828000000    -1.441000000
H     1.227000000     3.534000000    -1.423000000
H     2.390000000     3.773000000    -2.363000000
O     4.561000000    -3.165000000    -3.606000000
H     4.560000000    -4.044000000    -3.985000000
H     4.850000000    -2.596000000    -4.320000000
O     0.231000000    -0.036000000     4.366000000
H     0.516000000     0.719000000     3.850000000
H    -0.151000000     0.346000000     5.157000000
O    -7.098000000     0.565000000    -0.518000000
H    -7.614000000     0.091000000     0.134000000
H    -7.672000000     1.275000000    -0.808000000
O     4.010000000     1.586000000     3.058000000
H     3.232000000     1.802000000     2.544000000
H     3.776000000     1.819000000     3.957000000
O    -5.603000000    -1.354000000     2.990000000
H    -6.310000000    -0.729000000     3.149000000
H    -4.897000000    -0.826000000     2.617000000
O    -5.512000000    -2.359000000     5.571000000
H    -5.513000000    -3.314000000     5.645000000
H    -5.467000000    -2.192000000     4.629000000
