158
-3051.62847
C     0.850000000     1.053000000    -0.674000000
H     1.362000000     1.755000000    -1.329000000
C     0.855000000    -0.289000000    -1.000000000
H     1.372000000    -0.726000000    -1.851000000
C     0.098000000    -1.190000000    -0.292000000
H     0.082000000    -2.252000000    -0.514000000
C    -0.721000000    -0.731000000     0.736000000
H    -1.379000000    -1.460000000     1.202000000
C    -0.672000000     0.584000000     1.108000000
H    -1.239000000     0.823000000     2.004000000
C     0.119000000     1.508000000     0.456000000
C    -0.050000000     3.018000000     0.672000000
O     0.690000000     3.788000000     0.094000000
O    -0.741000000     3.334000000     1.631000000
O     2.042000000    -4.811000000    -1.157000000
H     1.458000000    -4.802000000    -0.398000000
H     2.133000000    -5.738000000    -1.378000000
O     1.062000000    -4.008000000     1.281000000
H     0.906000000    -4.018000000     2.226000000
H     1.567000000    -3.210000000     1.130000000
O     2.797000000    -1.691000000     1.650000000
H     2.452000000    -0.959000000     2.161000000
H     3.556000000    -1.328000000     1.193000000
O     5.045000000     4.188000000     1.518000000
H     5.604000000     3.456000000     1.258000000
H     4.450000000     4.310000000     0.778000000
O    -1.234000000    -2.340000000    -4.598000000
H    -0.515000000    -2.608000000    -4.026000000
H    -0.876000000    -2.411000000    -5.483000000
O    -4.125000000     1.894000000     1.287000000
H    -4.248000000     1.201000000     0.638000000
H    -3.902000000     1.430000000     2.094000000
O     1.575000000     0.082000000     3.342000000
H     1.448000000     0.670000000     4.087000000
H     1.260000000     0.580000000     2.588000000
O     0.138000000    -2.174000000     4.351000000
H     0.609000000    -1.582000000     3.765000000
H    -0.731000000    -1.781000000     4.441000000
O     5.315000000    -0.509000000    -4.620000000
H     5.739000000    -0.142000000    -5.395000000
H     4.629000000     0.122000000    -4.400000000
O    -2.845000000     4.480000000     5.750000000
H    -3.660000000     4.638000000     5.273000000
H    -2.310000000     3.967000000     5.144000000
O    -4.946000000    -0.270000000    -0.303000000
H    -5.595000000    -0.906000000    -0.604000000
H    -4.511000000     0.025000000    -1.103000000
O     3.633000000     3.084000000     3.727000000
H     4.195000000     3.353000000     3.001000000
H     3.954000000     3.585000000     4.477000000
O    -3.672000000    -3.030000000     5.290000000
H    -4.536000000    -3.439000000     5.238000000
H    -3.335000000    -3.069000000     4.395000000
O    -3.022000000     7.243000000     1.529000000
H    -3.272000000     6.417000000     1.116000000
H    -2.083000000     7.322000000     1.359000000
O    -2.535000000     2.664000000     3.746000000
H    -2.113000000     1.825000000     3.932000000
H    -1.985000000     3.064000000     3.072000000
O    -2.852000000     4.471000000    -1.779000000
H    -2.053000000     4.986000000    -1.895000000
H    -3.114000000     4.637000000    -0.873000000
O     0.076000000     7.125000000     5.329000000
H    -0.088000000     6.549000000     4.582000000
H    -0.239000000     6.630000000     6.086000000
O    -3.302000000     4.403000000     0.942000000
H    -3.812000000     3.621000000     1.156000000
H    -2.501000000     4.314000000     1.457000000
O     0.803000000     2.740000000    -5.961000000
H    -0.142000000     2.602000000    -6.028000000
H     0.911000000     3.271000000    -5.172000000
O     2.738000000     6.900000000    -0.845000000
H     2.473000000     6.486000000    -0.024000000
H     2.846000000     6.171000000    -1.456000000
O    -3.506000000     2.356000000    -3.283000000
H    -3.103000000     3.065000000    -2.782000000
H    -3.617000000     1.648000000    -2.649000000
O    -2.458000000     0.584000000    -1.401000000
H    -1.844000000     0.110000000    -0.840000000
H    -1.901000000     1.069000000    -2.011000000
O     3.130000000     1.238000000    -4.299000000
H     3.062000000     0.684000000    -5.077000000
H     3.194000000     2.129000000    -4.644000000
O    -1.693000000    -4.378000000     0.534000000
H    -0.771000000    -4.429000000     0.788000000
H    -2.061000000    -5.221000000     0.800000000
O     3.826000000     3.828000000    -5.071000000
H     3.468000000     4.146000000    -5.900000000
H     3.476000000     4.428000000    -4.413000000
O     2.460000000     6.041000000    -3.951000000
H     1.701000000     5.485000000    -3.778000000
H     2.159000000     6.657000000    -4.619000000
O    -5.274000000    -4.903000000    -1.172000000
H    -4.940000000    -5.340000000    -1.955000000
H    -4.677000000    -4.167000000    -1.035000000
O    -4.084000000    -0.386000000     3.277000000
H    -3.511000000    -0.347000000     4.043000000
H    -3.750000000    -1.122000000     2.765000000
O    -0.335000000     7.838000000     1.105000000
H     0.204000000     8.376000000     1.686000000
H    -0.584000000     8.429000000     0.394000000
O    -2.008000000    -0.182000000     5.366000000
H    -2.275000000    -0.786000000     6.059000000
H    -1.440000000     0.451000000     5.805000000
O    -5.886000000     2.700000000     3.763000000
H    -5.139000000     2.450000000     3.220000000
H    -6.124000000     1.898000000     4.227000000
O     4.392000000    -3.441000000    -0.160000000
H     4.542000000    -2.839000000    -0.889000000
H     3.579000000    -3.893000000    -0.385000000
O     1.353000000     2.585000000     4.882000000
H     2.180000000     2.824000000     4.464000000
H     1.511000000     2.716000000     5.817000000
O     1.696000000    -1.090000000    -6.184000000
H     1.722000000    -0.214000000    -6.568000000
H     0.832000000    -1.429000000    -6.419000000
O     3.314000000     3.821000000    -0.356000000
H     2.358000000     3.771000000    -0.325000000
H     3.583000000     2.994000000    -0.758000000
O     1.594000000     5.844000000     1.507000000
H     0.759000000     6.306000000     1.424000000
H     1.399000000     4.946000000     1.239000000
O     1.909000000    -7.205000000     0.782000000
H     2.676000000    -6.704000000     1.059000000
H     1.399000000    -7.325000000     1.583000000
O    -0.499000000     1.450000000     6.606000000
H     0.189000000     1.541000000     7.264000000
H    -0.136000000     1.860000000     5.821000000
O     4.733000000     0.293000000     0.886000000
H     5.302000000     0.886000000     1.377000000
H     4.865000000     0.537000000    -0.030000000
O    -0.119000000     4.813000000     3.780000000
H     0.468000000     4.191000000     4.209000000
H    -0.335000000     4.400000000     2.944000000
O     4.810000000     1.488000000    -1.866000000
H     4.144000000     1.382000000    -2.545000000
H     5.464000000     2.064000000    -2.260000000
O     3.430000000    -2.495000000    -4.795000000
H     4.207000000    -1.936000000    -4.808000000
H     2.735000000    -1.948000000    -5.162000000
O    -0.419000000     5.887000000    -1.331000000
H    -0.407000000     5.325000000    -0.556000000
H     0.126000000     6.636000000    -1.092000000
O     0.073000000     4.763000000    -3.808000000
H    -0.148000000     5.282000000    -3.035000000
H    -0.633000000     4.119000000    -3.873000000
O    -3.498000000    -2.033000000    -3.362000000
H    -2.729000000    -2.164000000    -3.917000000
H    -3.187000000    -2.218000000    -2.476000000
O    -3.507000000    -2.948000000     2.088000000
H    -2.771000000    -3.499000000     1.820000000
H    -4.253000000    -3.546000000     2.123000000
O     0.989000000    -3.093000000    -3.497000000
H     1.435000000    -3.568000000    -2.796000000
H     1.691000000    -2.642000000    -3.966000000
O    -3.404000000    -2.790000000    -0.746000000
H    -3.511000000    -1.954000000    -0.292000000
H    -2.762000000    -3.268000000    -0.220000000
