158
-3011.06328
C     0.547000000     0.744000000    -1.151000000
H     1.055000000     1.140000000    -2.026000000
C     0.744000000    -0.597000000    -0.858000000
H     1.261000000    -1.164000000    -1.628000000
C     0.086000000    -1.208000000     0.185000000
H     0.171000000    -2.297000000     0.325000000
C    -0.757000000    -0.438000000     1.002000000
H    -1.236000000    -0.927000000     1.846000000
C    -0.783000000     0.927000000     0.848000000
H    -1.343000000     1.558000000     1.533000000
C    -0.036000000     1.538000000    -0.182000000
C    -0.177000000     3.045000000    -0.239000000
O     0.361000000     3.689000000    -1.191000000
O    -0.820000000     3.657000000     0.612000000
O     2.483000000    -5.956000000     3.419000000
H     1.825000000    -6.083000000     4.102000000
H     2.452000000    -5.019000000     3.226000000
O     4.878000000    -2.055000000    -1.768000000
H     4.651000000    -2.082000000    -0.839000000
H     4.881000000    -1.123000000    -1.987000000
O     3.595000000    -0.931000000     1.120000000
H     3.717000000    -1.519000000     1.866000000
H     2.654000000    -0.758000000     1.103000000
O     1.512000000    -1.296000000    -4.625000000
H     1.370000000    -1.859000000    -5.386000000
H     0.991000000    -0.514000000    -4.806000000
O    -0.294000000     2.919000000    -6.595000000
H    -1.249000000     2.970000000    -6.618000000
H    -0.072000000     3.003000000    -5.668000000
O     5.583000000     4.187000000    -0.674000000
H     4.639000000     4.034000000    -0.640000000
H     5.677000000     4.984000000    -1.196000000
O     1.796000000    -4.417000000    -1.052000000
H     1.192000000    -4.211000000    -1.766000000
H     1.362000000    -4.081000000    -0.267000000
O     4.221000000    -4.284000000    -3.885000000
H     4.429000000    -5.044000000    -3.342000000
H     4.079000000    -3.574000000    -3.259000000
O     2.214000000     5.017000000    -5.719000000
H     2.845000000     4.308000000    -5.593000000
H     1.361000000     4.585000000    -5.699000000
O    -3.242000000     4.149000000     1.372000000
H    -2.315000000     4.062000000     1.152000000
H    -3.413000000     3.428000000     1.979000000
O     0.337000000    -3.820000000     3.808000000
H     0.177000000    -3.876000000     2.866000000
H    -0.412000000    -4.264000000     4.204000000
O    -3.900000000     5.878000000    -0.892000000
H    -3.623000000     5.585000000    -0.024000000
H    -4.222000000     5.086000000    -1.321000000
O     0.128000000    -7.204000000    -0.650000000
H     0.137000000    -6.578000000     0.074000000
H     0.937000000    -7.705000000    -0.543000000
O    -4.059000000     6.708000000     2.099000000
H    -3.675000000     5.929000000     1.696000000
H    -3.380000000     7.033000000     2.690000000
O    -0.915000000     5.653000000    -5.529000000
H    -0.903000000     5.832000000    -4.589000000
H    -0.243000000     6.230000000    -5.892000000
O    -2.622000000     0.155000000    -2.004000000
H    -2.018000000    -0.222000000    -1.364000000
H    -3.427000000     0.313000000    -1.510000000
O    -2.521000000    -7.194000000    -1.695000000
H    -2.556000000    -6.361000000    -1.224000000
H    -1.648000000    -7.539000000    -1.507000000
O    -0.672000000     0.412000000    -4.355000000
H    -1.439000000     0.676000000    -4.863000000
H    -0.985000000     0.374000000    -3.451000000
O    -0.575000000    -0.827000000     5.233000000
H     0.041000000    -1.552000000     5.338000000
H    -0.021000000    -0.063000000     5.073000000
O     0.318000000    -6.748000000    -3.422000000
H     0.207000000    -6.692000000    -2.473000000
H    -0.567000000    -6.646000000    -3.774000000
O    -4.287000000    -1.958000000     0.085000000
H    -3.718000000    -2.721000000     0.185000000
H    -4.715000000    -1.866000000     0.936000000
O    -1.280000000    -6.110000000     2.690000000
H    -1.663000000    -6.778000000     2.121000000
H    -1.447000000    -6.426000000     3.578000000
O    -5.027000000    -1.811000000     2.697000000
H    -5.484000000    -1.226000000     3.302000000
H    -5.393000000    -2.677000000     2.879000000
O     0.053000000    -3.322000000    -2.901000000
H    -0.784000000    -2.879000000    -2.760000000
H     0.528000000    -2.750000000    -3.503000000
O    -6.271000000     2.965000000     2.390000000
H    -6.452000000     2.898000000     1.453000000
H    -5.359000000     2.688000000     2.479000000
O     3.978000000    -2.693000000     3.056000000
H     4.006000000    -2.251000000     3.905000000
H     4.451000000    -3.513000000     3.198000000
O    -3.194000000    -0.331000000     4.217000000
H    -3.565000000    -1.001000000     3.643000000
H    -2.305000000    -0.635000000     4.397000000
O     4.580000000     0.575000000    -2.488000000
H     5.536000000     0.581000000    -2.536000000
H     4.330000000     1.497000000    -2.556000000
O    -0.796000000     5.632000000     3.326000000
H    -0.944000000     4.777000000     3.731000000
H    -1.286000000     6.244000000     3.875000000
O     2.203000000    -3.705000000     5.763000000
H     2.486000000    -2.924000000     6.239000000
H     1.572000000    -3.378000000     5.121000000
O    -3.665000000     2.091000000     3.115000000
H    -3.209000000     2.446000000     3.878000000
H    -3.711000000     1.150000000     3.280000000
O     0.036000000     3.285000000    -3.803000000
H    -0.918000000     3.323000000    -3.871000000
H     0.213000000     3.378000000    -2.867000000
O     2.931000000     4.002000000     0.084000000
H     2.770000000     4.137000000     1.018000000
H     2.109000000     4.249000000    -0.338000000
O     2.211000000     8.020000000    -0.205000000
H     2.238000000     8.236000000    -1.137000000
H     1.571000000     7.310000000    -0.143000000
O     0.198000000     6.238000000     0.754000000
H     0.096000000     6.159000000     1.702000000
H     0.018000000     5.360000000     0.419000000
O     3.733000000    -6.273000000    -1.777000000
H     3.111000000    -5.587000000    -1.531000000
H     3.192000000    -7.053000000    -1.900000000
O     3.089000000     2.850000000    -2.730000000
H     3.230000000     3.785000000    -2.877000000
H     2.580000000     2.810000000    -1.920000000
O     3.642000000     5.639000000    -3.003000000
H     4.027000000     6.363000000    -2.510000000
H     3.048000000     6.061000000    -3.624000000
O    -0.839000000    -4.482000000     0.690000000
H    -1.062000000    -5.085000000     1.399000000
H    -1.659000000    -4.359000000     0.213000000
O    -3.043000000    -4.481000000    -0.735000000
H    -3.757000000    -5.118000000    -0.728000000
H    -3.098000000    -4.068000000    -1.597000000
O     1.534000000     4.185000000     2.420000000
H     1.160000000     4.572000000     3.212000000
H     0.787000000     3.786000000     1.973000000
O     2.510000000     1.856000000    -5.022000000
H     2.821000000     2.222000000    -4.193000000
H     1.557000000     1.838000000    -4.932000000
O    -1.006000000     5.970000000    -2.610000000
H    -0.241000000     5.584000000    -2.183000000
H    -0.859000000     6.914000000    -2.559000000
O    -3.125000000     1.896000000     5.880000000
H    -3.337000000     1.276000000     5.182000000
H    -3.970000000     2.110000000     6.274000000
O    -2.523000000     3.252000000    -2.669000000
H    -2.035000000     3.048000000    -1.871000000
H    -2.440000000     4.200000000    -2.765000000
O    -2.884000000    -2.724000000    -2.823000000
H    -3.396000000    -2.475000000    -3.592000000
H    -2.903000000    -1.948000000    -2.262000000
O    -0.768000000     3.283000000     5.222000000
H    -1.591000000     2.858000000     5.464000000
H    -0.093000000     2.639000000     5.438000000
O     4.084000000    -0.685000000    -4.781000000
H     3.167000000    -0.959000000    -4.766000000
H     4.191000000    -0.164000000    -3.985000000
