158
-3043.33239
C     0.248000000     0.674000000    -1.300000000
H     0.500000000     0.911000000    -2.330000000
C    -0.096000000    -0.699000000    -1.118000000
H    -0.080000000    -1.315000000    -2.013000000
C    -0.405000000    -1.173000000     0.163000000
H    -0.681000000    -2.250000000     0.191000000
C    -0.183000000    -0.374000000     1.277000000
H    -0.379000000    -0.696000000     2.296000000
C     0.239000000     0.974000000     1.070000000
H     0.573000000     1.555000000     1.925000000
C     0.426000000     1.539000000    -0.228000000
C     0.905000000     2.973000000    -0.391000000
O     1.044000000     3.376000000    -1.509000000
O     0.623000000     3.752000000     0.501000000
O     0.104000000    -6.821000000     2.463000000
H     0.241000000    -7.757000000     2.315000000
H     0.310000000    -6.693000000     3.389000000
O     3.233000000    -1.923000000    -2.662000000
H     2.996000000    -1.787000000    -1.745000000
H     3.486000000    -1.055000000    -2.975000000
O     2.536000000    -2.203000000    -0.078000000
H     2.506000000    -2.790000000     0.678000000
H     1.980000000    -1.465000000     0.169000000
O     2.775000000     2.218000000     4.612000000
H     3.195000000     1.730000000     3.904000000
H     2.449000000     3.015000000     4.193000000
O     1.976000000    -1.997000000     6.176000000
H     1.940000000    -1.047000000     6.068000000
H     2.252000000    -2.124000000     7.084000000
O     5.088000000     3.820000000    -3.409000000
H     5.085000000     3.661000000    -2.466000000
H     4.650000000     4.665000000    -3.511000000
O     0.711000000    -4.762000000    -1.304000000
H     1.136000000    -4.002000000    -0.905000000
H    -0.184000000    -4.740000000    -0.966000000
O     0.907000000     6.388000000     0.543000000
H     0.784000000     5.447000000     0.670000000
H     1.785000000     6.466000000     0.170000000
O    -2.307000000     4.000000000     0.331000000
H    -1.384000000     3.744000000     0.329000000
H    -2.502000000     4.184000000     1.249000000
O    -1.758000000    -3.313000000     3.837000000
H    -1.119000000    -3.764000000     4.389000000
H    -1.677000000    -3.735000000     2.982000000
O    -2.955000000     4.971000000    -2.126000000
H    -2.941000000     4.382000000    -1.371000000
H    -2.078000000     4.896000000    -2.503000000
O    -1.506000000    -7.963000000    -0.834000000
H    -2.000000000    -7.180000000    -1.077000000
H    -1.538000000    -7.980000000     0.122000000
O    -4.588000000    -3.790000000    -0.111000000
H    -4.584000000    -3.780000000     0.846000000
H    -5.251000000    -4.441000000    -0.341000000
O    -1.714000000    -0.972000000    -5.159000000
H    -1.981000000    -0.087000000    -5.407000000
H    -2.025000000    -1.073000000    -4.259000000
O    -2.891000000    -1.392000000    -2.410000000
H    -3.619000000    -1.994000000    -2.562000000
H    -3.179000000    -0.849000000    -1.676000000
O     1.090000000    -1.733000000    -5.774000000
H     0.233000000    -1.307000000    -5.773000000
H     1.036000000    -2.380000000    -5.071000000
O    -1.918000000    -0.790000000     5.081000000
H    -1.962000000    -1.739000000     4.962000000
H    -1.024000000    -0.558000000     4.832000000
O     2.444000000    -7.028000000     0.140000000
H     2.406000000    -7.719000000    -0.521000000
H     1.801000000    -6.382000000    -0.151000000
O     3.624000000     0.714000000     2.623000000
H     3.076000000    -0.066000000     2.705000000
H     4.008000000     0.647000000     1.749000000
O    -3.217000000    -0.052000000     0.187000000
H    -2.268000000    -0.065000000     0.307000000
H    -3.566000000    -0.429000000     0.995000000
O     3.826000000     1.048000000    -0.375000000
H     2.976000000     1.066000000    -0.815000000
H     4.294000000     1.804000000    -0.728000000
O     3.689000000     4.975000000     2.236000000
H     3.669000000     5.925000000     2.345000000
H     2.853000000     4.675000000     2.593000000
O    -4.172000000    -1.925000000     2.454000000
H    -5.019000000    -2.258000000     2.749000000
H    -3.533000000    -2.365000000     3.015000000
O     1.091000000    -3.385000000    -3.724000000
H     1.839000000    -2.874000000    -3.414000000
H     1.171000000    -4.225000000    -3.272000000
O     2.468000000    -1.792000000     3.399000000
H     2.470000000    -1.728000000     4.354000000
H     2.284000000    -2.714000000     3.221000000
O    -4.105000000     0.455000000     3.849000000
H    -4.320000000    -0.128000000     3.121000000
H    -3.301000000     0.090000000     4.218000000
O     4.588000000     0.374000000    -3.399000000
H     5.431000000     0.581000000    -2.996000000
H     4.119000000     1.208000000    -3.417000000
O    -0.892000000     5.328000000     3.954000000
H    -1.701000000     5.293000000     3.444000000
H    -1.135000000     5.787000000     4.758000000
O     0.856000000     0.381000000     5.070000000
H     1.496000000     0.806000000     4.499000000
H     0.327000000     1.100000000     5.415000000
O    -0.022000000     3.062000000    -4.976000000
H     0.835000000     2.746000000    -4.690000000
H     0.167000000     3.604000000    -5.742000000
O     4.871000000     3.770000000    -0.414000000
H     5.754000000     3.433000000    -0.266000000
H     4.683000000     4.300000000     0.361000000
O     1.800000000    -4.021000000     1.899000000
H     0.850000000    -4.131000000     1.940000000
H     2.140000000    -4.912000000     1.814000000
O     1.556000000     4.113000000     6.277000000
H     0.823000000     3.719000000     5.804000000
H     1.740000000     4.923000000     5.802000000
O     2.846000000     5.531000000    -1.289000000
H     3.524000000     4.931000000    -0.978000000
H     2.063000000     4.985000000    -1.372000000
O    -0.541000000     5.123000000    -2.933000000
H    -0.245000000     4.896000000    -3.814000000
H    -0.152000000     4.454000000    -2.370000000
O    -5.535000000    -2.728000000    -2.211000000
H    -5.252000000    -2.905000000    -1.315000000
H    -6.426000000    -3.077000000    -2.254000000
O     2.297000000     2.289000000    -3.450000000
H     2.864000000     2.976000000    -3.799000000
H     1.797000000     2.719000000    -2.756000000
O     2.325000000     4.855000000    -4.431000000
H     1.941000000     5.319000000    -5.174000000
H     2.767000000     5.537000000    -3.924000000
O     0.758000000     9.082000000     0.527000000
H     1.375000000     9.292000000     1.228000000
H     0.691000000     8.127000000     0.544000000
O    -0.884000000    -4.383000000     1.449000000
H    -0.596000000    -5.293000000     1.390000000
H    -1.446000000    -4.259000000     0.684000000
O    -1.968000000    -4.467000000    -1.055000000
H    -2.840000000    -4.117000000    -0.872000000
H    -1.815000000    -4.259000000    -1.977000000
O     1.326000000     3.903000000     3.033000000
H     0.523000000     3.965000000     3.549000000
H     1.034000000     3.986000000     2.125000000
O     2.255000000     1.177000000    -6.382000000
H     2.341000000     1.401000000    -5.456000000
H     2.155000000     0.225000000    -6.390000000
O     0.845000000     7.647000000    -2.744000000
H     1.063000000     6.850000000    -3.227000000
H    -0.080000000     7.544000000    -2.517000000
O     1.913000000     6.460000000     4.780000000
H     1.945000000     7.410000000     4.664000000
H     1.852000000     6.112000000     3.891000000
O    -2.380000000     2.216000000    -3.795000000
H    -1.969000000     1.709000000    -3.095000000
H    -1.645000000     2.582000000    -4.288000000
O    -1.250000000    -4.489000000    -3.670000000
H    -0.479000000    -3.933000000    -3.561000000
H    -1.615000000    -4.230000000    -4.516000000
O    -0.855000000     2.405000000     5.564000000
H    -0.992000000     2.269000000     6.501000000
H    -1.732000000     2.556000000     5.212000000
