158
-3036.62241
C    -1.103000000     0.069000000     0.991000000
H    -1.995000000     0.094000000     1.611000000
C    -1.050000000     0.873000000    -0.114000000
H    -1.928000000     1.400000000    -0.478000000
C     0.061000000     0.750000000    -0.953000000
H     0.048000000     1.256000000    -1.923000000
C     1.112000000    -0.104000000    -0.673000000
H     1.907000000    -0.202000000    -1.407000000
C     1.017000000    -0.936000000     0.433000000
H     1.858000000    -1.611000000     0.569000000
C    -0.124000000    -0.900000000     1.300000000
C    -0.113000000    -1.802000000     2.531000000
O     0.795000000    -2.527000000     2.729000000
O    -0.969000000    -1.654000000     3.416000000
O     3.338000000     2.935000000    -4.006000000
H     2.537000000     2.979000000    -4.528000000
H     3.515000000     1.999000000    -3.917000000
O    -5.326000000    -1.854000000     2.332000000
H    -4.895000000    -1.242000000     2.929000000
H    -5.439000000    -1.358000000     1.521000000
O    -5.270000000     1.112000000     2.142000000
H    -5.342000000     0.696000000     1.283000000
H    -4.339000000     1.058000000     2.357000000
O    -3.036000000    -2.070000000    -1.384000000
H    -3.196000000    -2.648000000    -2.130000000
H    -2.097000000    -1.888000000    -1.419000000
O    -2.711000000    -3.397000000     4.493000000
H    -2.329000000    -4.274000000     4.487000000
H    -2.052000000    -2.845000000     4.072000000
O    -5.112000000    -0.173000000    -0.201000000
H    -5.618000000     0.175000000    -0.936000000
H    -4.470000000    -0.755000000    -0.606000000
O     2.063000000    -3.363000000    -3.324000000
H     2.703000000    -2.827000000    -2.855000000
H     1.629000000    -3.872000000    -2.640000000
O     1.270000000    -0.880000000    -4.471000000
H     1.253000000    -1.452000000    -3.703000000
H     0.617000000    -1.253000000    -5.062000000
O    -6.348000000     1.261000000     4.785000000
H    -5.777000000     1.226000000     4.018000000
H    -5.761000000     1.478000000     5.510000000
O    -1.390000000    -3.093000000    -3.659000000
H    -0.912000000    -3.920000000    -3.596000000
H    -1.690000000    -3.058000000    -4.568000000
O    -0.923000000     2.299000000    -7.639000000
H    -0.066000000     2.286000000    -7.213000000
H    -0.754000000     2.666000000    -8.507000000
O    -5.893000000     3.666000000     1.758000000
H    -5.554000000     3.661000000     0.863000000
H    -5.747000000     2.774000000     2.074000000
O    -2.757000000     0.752000000     7.459000000
H    -2.233000000     0.299000000     6.798000000
H    -2.167000000     1.415000000     7.818000000
O     4.557000000    -3.237000000     2.755000000
H     4.165000000    -2.446000000     3.124000000
H     3.917000000    -3.927000000     2.933000000
O    -1.004000000    -3.359000000     7.026000000
H    -0.388000000    -3.685000000     6.369000000
H    -1.088000000    -4.077000000     7.653000000
O     3.290000000    -5.856000000     3.739000000
H     2.680000000    -5.821000000     4.475000000
H     4.019000000    -6.388000000     4.058000000
O     1.374000000    -4.713000000     1.283000000
H     1.514000000    -3.861000000     1.696000000
H     0.803000000    -5.183000000     1.890000000
O    -2.053000000     0.506000000    -4.750000000
H    -1.580000000     0.004000000    -5.414000000
H    -1.665000000     0.228000000    -3.920000000
O    -0.683000000    -2.057000000    -6.317000000
H    -0.487000000    -2.948000000    -6.607000000
H    -0.430000000    -1.504000000    -7.055000000
O    -1.678000000    -5.802000000     4.633000000
H    -0.747000000    -5.698000000     4.436000000
H    -1.722000000    -6.599000000     5.162000000
O     1.002000000     1.643000000    -5.165000000
H     1.383000000     1.692000000    -6.042000000
H     1.003000000     0.710000000    -4.954000000
O     0.077000000     3.494000000    -3.371000000
H     0.320000000     4.261000000    -3.890000000
H     0.100000000     2.767000000    -3.993000000
O     1.467000000     4.303000000    -1.198000000
H     1.448000000     5.167000000    -1.607000000
H     0.850000000     3.781000000    -1.710000000
O     2.413000000     2.012000000     1.986000000
H     2.408000000     2.935000000     1.733000000
H     3.288000000     1.704000000     1.750000000
O     3.303000000    -2.381000000     6.308000000
H     2.445000000    -2.009000000     6.510000000
H     3.920000000    -1.842000000     6.804000000
O    -1.337000000    -5.001000000     1.778000000
H    -1.117000000    -4.154000000     1.392000000
H    -1.906000000    -4.787000000     2.517000000
O    -1.058000000    -0.783000000     6.018000000
H    -1.154000000    -1.630000000     6.454000000
H    -0.907000000    -1.004000000     5.098000000
O    -4.184000000    -4.303000000     1.316000000
H    -4.125000000    -5.092000000     1.854000000
H    -4.530000000    -3.635000000     1.908000000
O     4.933000000     1.219000000    -0.297000000
H     4.652000000     2.015000000    -0.748000000
H     4.506000000     0.509000000    -0.777000000
O     0.936000000     0.200000000     7.755000000
H     0.409000000     0.127000000     6.959000000
H     0.562000000    -0.450000000     8.350000000
O     3.661000000     0.230000000    -3.827000000
H     4.319000000    -0.453000000    -3.699000000
H     2.979000000    -0.189000000    -4.353000000
O     3.387000000    -6.777000000     0.545000000
H     2.611000000    -6.278000000     0.799000000
H     4.000000000    -6.654000000     1.270000000
O    -1.898000000     2.184000000     3.843000000
H    -1.091000000     1.909000000     4.278000000
H    -1.626000000     2.892000000     3.259000000
O    -4.964000000    -2.440000000     6.014000000
H    -4.596000000    -2.937000000     5.283000000
H    -4.243000000    -1.887000000     6.314000000
O     4.358000000    -2.371000000    -2.030000000
H     4.670000000    -2.261000000    -1.132000000
H     5.074000000    -2.822000000    -2.478000000
O    -0.450000000     3.793000000     1.699000000
H     0.405000000     4.106000000     1.402000000
H    -0.598000000     2.991000000     1.197000000
O    -3.710000000     2.464000000     5.710000000
H    -3.614000000     1.826000000     6.417000000
H    -2.926000000     2.346000000     5.174000000
O     0.745000000    -4.218000000     4.795000000
H     0.519000000    -3.505000000     4.198000000
H     1.677000000    -4.093000000     4.976000000
O    -3.981000000     2.101000000    -2.939000000
H    -4.648000000     2.259000000    -3.607000000
H    -3.474000000     1.362000000    -3.277000000
O     4.195000000     3.817000000    -1.722000000
H     4.148000000     3.509000000    -2.627000000
H     3.292000000     4.045000000    -1.500000000
O     0.523000000    -4.804000000    -1.748000000
H     0.772000000    -5.636000000    -1.345000000
H    -0.415000000    -4.726000000    -1.575000000
O    -3.420000000    -0.462000000     3.653000000
H    -2.739000000    -1.111000000     3.475000000
H    -2.939000000     0.328000000     3.898000000
O     0.658000000     1.742000000     4.633000000
H     1.099000000     1.459000000     3.832000000
H     0.876000000     2.670000000     4.713000000
O    -4.090000000     3.748000000    -0.727000000
H    -3.888000000     2.894000000    -1.108000000
H    -4.828000000     4.072000000    -1.243000000
O     5.510000000    -1.923000000     0.315000000
H     6.382000000    -1.704000000     0.644000000
H     5.106000000    -2.423000000     1.024000000
O    -3.376000000     2.233000000    -6.846000000
H    -3.372000000     1.423000000    -6.337000000
H    -2.600000000     2.170000000    -7.404000000
O    -3.217000000     5.245000000    -3.113000000
H    -3.024000000     4.636000000    -2.401000000
H    -2.953000000     4.777000000    -3.906000000
O     3.113000000    -0.982000000     3.379000000
H     3.253000000    -0.452000000     2.594000000
H     2.316000000    -1.479000000     3.192000000
