158
-3019.46009
C    -1.472000000    -0.082000000     0.241000000
H    -2.545000000    -0.004000000     0.398000000
C    -0.952000000     0.733000000    -0.693000000
H    -1.560000000     1.388000000    -1.311000000
C     0.454000000     0.766000000    -0.773000000
H     0.934000000     1.351000000    -1.615000000
C     1.270000000    -0.010000000     0.056000000
H     2.331000000     0.211000000    -0.025000000
C     0.733000000    -0.891000000     0.864000000
H     1.418000000    -1.559000000     1.380000000
C    -0.684000000    -1.018000000     0.921000000
C    -1.294000000    -2.103000000     1.750000000
O    -0.598000000    -2.778000000     2.455000000
O    -2.540000000    -2.246000000     1.743000000
O    -6.586000000     1.203000000     0.165000000
H    -6.645000000     0.353000000    -0.272000000
H    -5.906000000     1.673000000    -0.317000000
O     6.320000000    -0.528000000    -3.628000000
H     7.235000000    -0.257000000    -3.558000000
H     5.900000000    -0.157000000    -2.852000000
O    -3.505000000    -2.475000000    -0.592000000
H    -3.239000000    -2.485000000     0.328000000
H    -2.766000000    -2.864000000    -1.059000000
O    -4.919000000    -3.797000000     2.558000000
H    -4.715000000    -4.400000000     3.273000000
H    -4.111000000    -3.301000000     2.426000000
O    -5.990000000    -1.695000000     0.023000000
H    -5.084000000    -1.964000000    -0.133000000
H    -6.514000000    -2.319000000    -0.479000000
O     0.549000000    -2.184000000    -3.656000000
H     0.983000000    -2.302000000    -2.811000000
H    -0.115000000    -1.514000000    -3.494000000
O     2.565000000    -1.463000000    -5.514000000
H     1.865000000    -1.631000000    -4.884000000
H     3.305000000    -1.978000000    -5.193000000
O    -3.679000000    -0.945000000    -3.448000000
H    -3.739000000    -1.507000000    -4.220000000
H    -3.824000000    -1.536000000    -2.709000000
O     7.249000000    -0.872000000    -0.246000000
H     6.493000000    -0.286000000    -0.204000000
H     7.979000000    -0.345000000     0.077000000
O    -3.399000000     0.508000000     5.242000000
H    -3.673000000    -0.023000000     4.494000000
H    -2.519000000     0.194000000     5.450000000
O     5.499000000    -2.060000000     2.356000000
H     6.185000000    -2.261000000     2.992000000
H     4.710000000    -2.463000000     2.719000000
O    -1.594000000    -4.536000000     6.651000000
H    -2.218000000    -4.764000000     7.340000000
H    -1.576000000    -5.305000000     6.081000000
O     0.236000000    -6.228000000     3.259000000
H     0.117000000    -6.667000000     2.417000000
H     0.761000000    -6.839000000     3.776000000
O     3.688000000    -3.483000000     4.164000000
H     2.746000000    -3.535000000     4.323000000
H     4.083000000    -3.549000000     5.033000000
O     1.440000000    -4.172000000     1.371000000
H     0.779000000    -3.579000000     1.731000000
H     1.489000000    -4.888000000     2.004000000
O     6.407000000     2.326000000     0.657000000
H     5.756000000     2.983000000     0.901000000
H     7.196000000     2.581000000     1.135000000
O    -2.630000000     1.566000000    -4.064000000
H    -2.942000000     0.711000000    -3.769000000
H    -1.682000000     1.459000000    -4.144000000
O    -4.167000000    -4.856000000     5.120000000
H    -3.339000000    -4.634000000     4.695000000
H    -4.024000000    -5.731000000     5.481000000
O    -0.113000000     0.966000000    -4.792000000
H    -0.509000000     0.246000000    -5.283000000
H     0.588000000     1.287000000    -5.360000000
O    -1.303000000     3.805000000    -3.620000000
H    -1.005000000     3.899000000    -4.524000000
H    -1.798000000     2.986000000    -3.615000000
O     4.420000000     4.031000000     0.997000000
H     3.639000000     4.038000000     1.550000000
H     4.145000000     4.463000000     0.189000000
O     0.398000000     6.309000000    -3.078000000
H     0.130000000     6.966000000    -2.434000000
H    -0.169000000     5.558000000    -2.904000000
O     3.733000000     2.768000000     3.594000000
H     2.968000000     2.562000000     3.057000000
H     4.397000000     2.136000000     3.319000000
O     1.407000000     2.130000000     2.138000000
H     1.383000000     1.770000000     1.251000000
H     1.040000000     3.010000000     2.050000000
O    -2.761000000    -5.397000000     0.718000000
H    -3.356000000    -4.666000000     0.552000000
H    -2.577000000    -5.347000000     1.656000000
O    -1.971000000    -1.941000000     5.129000000
H    -1.259000000    -2.407000000     5.567000000
H    -2.092000000    -2.411000000     4.304000000
O     3.152000000     2.340000000    -2.757000000
H     2.559000000     2.876000000    -3.284000000
H     3.658000000     1.842000000    -3.399000000
O     5.091000000     0.446000000     3.351000000
H     5.352000000    -0.306000000     2.819000000
H     5.063000000     0.108000000     4.246000000
O     0.837000000    -2.736000000     7.337000000
H     1.295000000    -2.862000000     6.506000000
H     0.109000000    -3.357000000     7.305000000
O     3.440000000     1.221000000    -5.312000000
H     3.351000000     1.726000000    -6.121000000
H     2.921000000     0.432000000    -5.464000000
O     1.516000000    -5.250000000    -1.119000000
H     1.371000000    -4.905000000    -0.238000000
H     1.901000000    -4.520000000    -1.603000000
O    -6.618000000    -1.613000000     4.381000000
H    -6.502000000    -2.081000000     5.208000000
H    -5.728000000    -1.398000000     4.101000000
O     2.849000000    -2.885000000    -2.297000000
H     3.405000000    -2.434000000    -1.661000000
H     3.451000000    -3.160000000    -2.989000000
O    -2.671000000     4.244000000     0.442000000
H    -3.028000000     3.484000000    -0.019000000
H    -3.425000000     4.818000000     0.577000000
O    -4.658000000     2.594000000     3.431000000
H    -4.490000000     2.076000000     4.218000000
H    -3.846000000     3.080000000     3.287000000
O    -2.057000000    -4.786000000     3.448000000
H    -1.645000000    -3.996000000     3.098000000
H    -1.407000000    -5.476000000     3.313000000
O    -4.856000000     2.371000000    -1.549000000
H    -5.267000000     3.127000000    -1.968000000
H    -4.190000000     2.083000000    -2.173000000
O     2.185000000     4.075000000    -4.646000000
H     1.490000000     3.980000000    -5.298000000
H     1.889000000     4.792000000    -4.084000000
O    -1.664000000    -4.284000000    -1.335000000
H    -0.711000000    -4.321000000    -1.415000000
H    -1.870000000    -4.903000000    -0.635000000
O     4.964000000     0.710000000    -0.786000000
H     4.468000000     1.385000000    -1.250000000
H     5.556000000     1.199000000    -0.214000000
O    -4.391000000    -0.779000000     3.012000000
H    -3.961000000    -1.595000000     2.759000000
H    -4.100000000    -0.141000000     2.361000000
O     1.014000000     4.895000000     1.861000000
H     0.456000000     5.375000000     1.250000000
H     1.565000000     5.568000000     2.261000000
O    -0.492000000     1.992000000     5.140000000
H    -0.137000000     1.142000000     4.881000000
H    -1.265000000     1.780000000     5.662000000
O     4.617000000    -1.965000000    -0.619000000
H     4.776000000    -2.103000000     0.315000000
H     4.862000000    -1.052000000    -0.771000000
O     4.816000000    -5.447000000     0.443000000
H     3.981000000    -5.047000000     0.687000000
H     5.448000000    -4.730000000     0.489000000
O    -3.130000000     5.906000000    -3.901000000
H    -3.966000000     5.480000000    -3.713000000
H    -2.489000000     5.195000000    -3.880000000
O     1.120000000    -3.739000000     4.686000000
H     0.733000000    -3.148000000     4.040000000
H     0.877000000    -4.615000000     4.385000000
O     4.542000000     4.793000000    -2.094000000
H     4.498000000     4.996000000    -3.028000000
H     3.918000000     4.077000000    -1.974000000
