158
-3017.54789
C    -1.365000000     0.214000000     0.457000000
H    -2.360000000     0.601000000     0.666000000
C    -0.674000000     1.021000000    -0.453000000
H    -1.149000000     1.850000000    -0.971000000
C     0.552000000     0.590000000    -0.905000000
H     1.017000000     1.167000000    -1.727000000
C     1.135000000    -0.519000000    -0.339000000
H     2.135000000    -0.831000000    -0.628000000
C     0.546000000    -1.191000000     0.708000000
H     1.064000000    -1.944000000     1.297000000
C    -0.775000000    -0.922000000     1.077000000
C    -1.510000000    -1.468000000     2.282000000
O    -0.881000000    -1.966000000     3.159000000
O    -2.708000000    -1.453000000     2.268000000
O     0.314000000     2.313000000    -3.932000000
H    -0.599000000     2.194000000    -3.673000000
H     0.285000000     2.387000000    -4.886000000
O    -4.758000000     2.452000000     0.792000000
H    -4.806000000     3.407000000     0.774000000
H    -5.581000000     2.162000000     0.398000000
O     6.429000000     1.406000000    -4.917000000
H     5.531000000     1.655000000    -5.134000000
H     6.460000000     1.428000000    -3.961000000
O    -2.429000000    -0.446000000    -2.937000000
H    -1.760000000    -0.237000000    -2.285000000
H    -3.044000000    -1.017000000    -2.475000000
O    -5.184000000    -2.251000000     6.911000000
H    -4.623000000    -1.749000000     6.320000000
H    -5.957000000    -2.461000000     6.387000000
O    -4.315000000    -0.720000000     0.342000000
H    -4.452000000     0.226000000     0.376000000
H    -3.677000000    -0.895000000     1.034000000
O    -0.423000000    -4.615000000     0.041000000
H     0.479000000    -4.626000000    -0.279000000
H    -0.397000000    -4.045000000     0.810000000
O    -4.209000000     1.336000000    -4.332000000
H    -3.603000000     0.867000000    -3.759000000
H    -4.907000000     0.706000000    -4.511000000
O    -2.206000000     1.424000000    -5.865000000
H    -1.661000000     2.210000000    -5.905000000
H    -2.979000000     1.694000000    -5.369000000
O    -3.401000000     0.924000000     6.017000000
H    -2.525000000     0.550000000     6.106000000
H    -3.818000000     0.397000000     5.334000000
O     1.311000000    -2.667000000     4.498000000
H     1.474000000    -1.729000000     4.593000000
H     0.501000000    -2.719000000     3.989000000
O     1.280000000    -5.175000000     3.642000000
H     1.304000000    -4.645000000     4.439000000
H     2.042000000    -4.887000000     3.140000000
O    -0.030000000    -5.841000000     6.166000000
H    -0.655000000    -5.454000000     5.552000000
H    -0.455000000    -5.766000000     7.020000000
O     5.231000000     2.363000000    -0.422000000
H     5.527000000     3.055000000     0.170000000
H     4.588000000     1.870000000     0.088000000
O    -1.366000000    -2.469000000    -4.736000000
H    -1.413000000    -2.997000000    -3.940000000
H    -1.744000000    -1.626000000    -4.487000000
O     7.396000000     1.995000000    -1.990000000
H     7.905000000     1.318000000    -1.543000000
H     6.637000000     2.135000000    -1.425000000
O     1.315000000    -2.310000000    -4.405000000
H     0.438000000    -2.179000000    -4.765000000
H     1.815000000    -2.696000000    -5.125000000
O     0.196000000     5.434000000    -2.912000000
H     0.989000000     4.909000000    -3.022000000
H    -0.521000000     4.822000000    -3.079000000
O    -6.995000000    -1.623000000     0.618000000
H    -6.069000000    -1.630000000     0.374000000
H    -6.993000000    -1.724000000     1.570000000
O    -7.288000000    -3.297000000     2.896000000
H    -6.358000000    -3.519000000     2.849000000
H    -7.477000000    -3.251000000     3.833000000
O    -4.062000000     5.272000000    -1.483000000
H    -3.969000000     6.210000000    -1.321000000
H    -4.985000000     5.089000000    -1.305000000
O     1.654000000     3.925000000    -0.379000000
H     1.065000000     3.453000000     0.210000000
H     2.078000000     4.578000000     0.179000000
O     2.267000000     3.876000000    -3.152000000
H     1.609000000     3.281000000    -3.512000000
H     2.120000000     3.854000000    -2.207000000
O     0.523000000     1.700000000     2.547000000
H    -0.246000000     2.271000000     2.539000000
H     0.585000000     1.371000000     1.650000000
O    -0.282000000    -6.451000000     2.061000000
H     0.066000000    -6.021000000     1.280000000
H     0.113000000    -5.976000000     2.792000000
O    -6.371000000    -0.192000000     3.193000000
H    -6.936000000     0.453000000     3.619000000
H    -6.135000000     0.211000000     2.358000000
O    -0.467000000     4.128000000     1.724000000
H    -0.159000000     4.795000000     2.338000000
H    -1.223000000     4.530000000     1.294000000
O     1.523000000    -0.044000000     4.430000000
H     2.425000000    -0.044000000     4.112000000
H     1.057000000     0.537000000     3.829000000
O     6.299000000    -2.193000000     2.880000000
H     5.366000000    -2.132000000     2.671000000
H     6.350000000    -2.875000000     3.549000000
O    -4.594000000    -3.865000000     2.054000000
H    -4.302000000    -4.630000000     2.549000000
H    -4.029000000    -3.154000000     2.357000000
O    -3.939000000     4.288000000     3.852000000
H    -3.525000000     3.450000000     4.058000000
H    -3.635000000     4.494000000     2.968000000
O    -1.686000000    -4.369000000     4.599000000
H    -1.311000000    -3.569000000     4.231000000
H    -2.390000000    -4.604000000     3.994000000
O    -5.675000000    -4.395000000    -0.315000000
H    -5.596000000    -5.345000000    -0.231000000
H    -5.329000000    -4.052000000     0.508000000
O     3.312000000    -2.940000000    -2.614000000
H     2.639000000    -2.535000000    -3.161000000
H     4.134000000    -2.757000000    -3.070000000
O     3.913000000     3.429000000    -5.124000000
H     3.503000000     2.566000000    -5.069000000
H     3.584000000     3.900000000    -4.359000000
O     3.880000000     1.157000000     2.046000000
H     4.364000000     1.054000000     2.866000000
H     3.555000000     2.057000000     2.070000000
O    -0.548000000    -2.829000000     7.427000000
H    -1.126000000    -3.586000000     7.520000000
H    -0.790000000    -2.444000000     6.585000000
O     3.783000000    -4.570000000     2.118000000
H     3.759000000    -3.615000000     2.071000000
H     4.397000000    -4.829000000     1.430000000
O     2.270000000    -4.793000000    -0.761000000
H     2.508000000    -4.151000000    -1.431000000
H     3.108000000    -5.096000000    -0.411000000
O    -2.198000000     4.126000000    -3.331000000
H    -2.860000000     4.433000000    -2.711000000
H    -2.444000000     4.528000000    -4.163000000
O     3.592000000     0.505000000    -4.822000000
H     4.133000000    -0.284000000    -4.840000000
H     2.723000000     0.207000000    -5.090000000
O    -4.003000000    -2.442000000    -1.796000000
H    -4.542000000    -3.211000000    -1.614000000
H    -4.030000000    -1.933000000    -0.986000000
O     5.420000000    -0.868000000    -1.294000000
H     5.205000000    -1.488000000    -1.990000000
H     5.176000000    -0.013000000    -1.651000000
O    -4.252000000    -1.114000000     4.431000000
H    -3.633000000    -1.293000000     3.722000000
H    -5.043000000    -0.810000000     3.986000000
O    -1.040000000    -0.683000000     5.548000000
H    -0.122000000    -0.424000000     5.625000000
H    -1.164000000    -0.854000000     4.614000000
O    -2.962000000     5.170000000     1.282000000
H    -3.038000000     6.119000000     1.378000000
H    -3.089000000     5.013000000     0.346000000
O     4.340000000    -1.537000000     1.147000000
H     4.067000000    -0.661000000     1.418000000
H     4.501000000    -1.458000000     0.207000000
O     3.625000000    -3.899000000     5.406000000
H     2.887000000    -3.338000000     5.167000000
H     3.229000000    -4.620000000     5.896000000
