158
-3020.11855
C    -1.240000000     0.780000000     0.374000000
H    -2.103000000     1.427000000     0.510000000
C    -0.255000000     1.222000000    -0.509000000
H    -0.216000000     2.157000000    -1.062000000
C     0.962000000     0.430000000    -0.620000000
H     1.698000000     0.751000000    -1.279000000
C     1.046000000    -0.808000000    -0.029000000
H     1.937000000    -1.417000000    -0.160000000
C    -0.044000000    -1.306000000     0.664000000
H     0.052000000    -2.246000000     1.201000000
C    -1.153000000    -0.484000000     0.907000000
C    -2.416000000    -1.086000000     1.621000000
O    -2.369000000    -2.175000000     2.189000000
O    -3.443000000    -0.484000000     1.449000000
O    -0.157000000     3.112000000    -4.166000000
H     0.790000000     3.182000000    -4.285000000
H    -0.519000000     3.247000000    -5.042000000
O     2.479000000     2.649000000    -5.303000000
H     1.832000000     1.982000000    -5.534000000
H     3.087000000     2.659000000    -6.043000000
O    -0.803000000    -4.183000000     6.800000000
H    -1.166000000    -3.739000000     6.034000000
H    -0.871000000    -5.115000000     6.591000000
O    -4.041000000     0.720000000    -0.907000000
H    -4.982000000     0.849000000    -0.781000000
H    -3.733000000     0.374000000    -0.069000000
O    -2.914000000    -3.165000000    -2.077000000
H    -2.398000000    -2.383000000    -1.884000000
H    -2.521000000    -3.521000000    -2.874000000
O     3.301000000     6.047000000    -3.995000000
H     3.522000000     5.116000000    -4.035000000
H     4.033000000     6.447000000    -3.526000000
O    -3.606000000    -7.075000000     2.838000000
H    -3.577000000    -6.156000000     3.102000000
H    -2.952000000    -7.145000000     2.143000000
O    -3.032000000     1.741000000    -3.174000000
H    -2.174000000     1.325000000    -3.252000000
H    -3.404000000     1.377000000    -2.371000000
O    -0.631000000    -0.011000000    -4.128000000
H    -0.537000000     0.847000000    -4.541000000
H    -0.588000000    -0.632000000    -4.855000000
O     7.193000000    -1.696000000    -0.899000000
H     7.643000000    -1.390000000    -0.112000000
H     7.058000000    -0.905000000    -1.421000000
O    -3.340000000    -0.436000000     5.812000000
H    -2.551000000    -0.835000000     5.445000000
H    -3.696000000     0.092000000     5.097000000
O     0.023000000    -4.921000000     2.841000000
H     0.778000000    -4.341000000     2.739000000
H    -0.590000000    -4.424000000     3.383000000
O    -0.517000000    -5.636000000    -0.003000000
H    -0.421000000    -5.478000000     0.936000000
H     0.380000000    -5.706000000    -0.328000000
O    -6.446000000     2.156000000     3.533000000
H    -7.097000000     1.495000000     3.769000000
H    -5.621000000     1.673000000     3.485000000
O     4.002000000     0.553000000    -2.494000000
H     4.907000000     0.634000000    -2.795000000
H     4.000000000     0.961000000    -1.628000000
O    -0.843000000    -4.436000000    -3.557000000
H    -0.310000000    -3.847000000    -3.022000000
H    -0.488000000    -4.343000000    -4.441000000
O    -1.199000000     6.118000000    -1.627000000
H    -1.998000000     5.591000000    -1.602000000
H    -0.491000000     5.487000000    -1.502000000
O    -6.259000000    -2.536000000    -0.005000000
H    -6.400000000    -2.234000000     0.892000000
H    -5.595000000    -3.221000000     0.075000000
O    -6.503000000    -4.358000000     3.193000000
H    -6.359000000    -3.485000000     3.556000000
H    -5.696000000    -4.556000000     2.717000000
O    -5.523000000    -2.386000000    -2.538000000
H    -5.845000000    -2.367000000    -1.637000000
H    -4.583000000    -2.545000000    -2.452000000
O     3.024000000     3.254000000    -0.207000000
H     3.559000000     3.855000000     0.312000000
H     2.443000000     2.840000000     0.431000000
O     6.130000000     3.682000000    -1.087000000
H     5.752000000     3.467000000    -0.234000000
H     7.034000000     3.374000000    -1.033000000
O     1.346000000     4.543000000    -2.019000000
H     0.831000000     3.849000000    -2.432000000
H     1.949000000     4.081000000    -1.437000000
O    -1.374000000     1.834000000     3.612000000
H    -1.712000000     2.699000000     3.379000000
H    -1.036000000     1.479000000     2.790000000
O    -6.428000000     0.520000000     0.258000000
H    -6.655000000     1.200000000     0.893000000
H    -5.823000000    -0.054000000     0.729000000
O    -5.492000000    -1.521000000     2.499000000
H    -5.191000000    -1.941000000     3.304000000
H    -4.716000000    -1.490000000     1.940000000
O    -1.740000000     4.531000000     3.051000000
H    -1.215000000     5.304000000     2.844000000
H    -2.112000000     4.261000000     2.211000000
O     2.100000000    -3.318000000     2.588000000
H     2.677000000    -3.207000000     1.832000000
H     2.655000000    -3.127000000     3.343000000
O     5.635000000     0.150000000     2.618000000
H     5.627000000    -0.648000000     3.146000000
H     4.712000000     0.322000000     2.430000000
O    -5.316000000     3.323000000     0.727000000
H    -5.477000000     3.681000000     1.601000000
H    -6.040000000     3.656000000     0.196000000
O    -3.667000000    -4.262000000     3.124000000
H    -3.562000000    -4.248000000     4.075000000
H    -3.295000000    -3.430000000     2.830000000
O    -4.000000000    -4.124000000     0.215000000
H    -3.393000000    -3.928000000     0.930000000
H    -3.525000000    -3.876000000    -0.577000000
O     2.425000000     6.550000000    -0.481000000
H     3.304000000     6.171000000    -0.495000000
H     1.933000000     6.038000000    -1.122000000
O     5.361000000     3.510000000    -3.765000000
H     4.763000000     2.790000000    -3.963000000
H     5.470000000     3.476000000    -2.815000000
O     2.917000000     0.319000000     2.102000000
H     2.453000000     1.104000000     2.393000000
H     2.580000000     0.154000000     1.222000000
O     1.831000000    -5.888000000    -1.670000000
H     2.029000000    -4.985000000    -1.920000000
H     2.637000000    -6.205000000    -1.262000000
O     2.534000000    -0.445000000    -4.740000000
H     1.615000000    -0.355000000    -4.489000000
H     3.021000000    -0.245000000    -3.940000000
O     0.850000000    -1.027000000     4.124000000
H     1.507000000    -0.550000000     4.631000000
H     1.322000000    -1.335000000     3.351000000
O    -2.954000000     4.116000000    -1.966000000
H    -3.610000000     4.723000000    -2.311000000
H    -3.071000000     3.319000000    -2.483000000
O     0.116000000    -1.912000000    -2.401000000
H    -0.270000000    -1.176000000    -2.877000000
H    -0.018000000    -1.697000000    -1.478000000
O     2.611000000    -3.129000000    -2.214000000
H     3.356000000    -2.677000000    -2.610000000
H     1.843000000    -2.691000000    -2.582000000
O     2.036000000     2.996000000     2.521000000
H     2.753000000     3.530000000     2.864000000
H     1.279000000     3.582000000     2.523000000
O    -3.930000000     0.958000000     3.598000000
H    -4.005000000     0.394000000     2.828000000
H    -2.990000000     1.112000000     3.692000000
O    -1.275000000    -2.665000000     4.764000000
H    -0.624000000    -1.963000000     4.758000000
H    -1.782000000    -2.527000000     3.963000000
O    -2.787000000     3.777000000     0.772000000
H    -3.728000000     3.602000000     0.756000000
H    -2.527000000     3.776000000    -0.149000000
O     4.127000000    -2.746000000     0.600000000
H     4.858000000    -3.360000000     0.524000000
H     4.129000000    -2.268000000    -0.229000000
O    -7.844000000    -0.640000000     3.118000000
H    -6.961000000    -0.925000000     2.880000000
H    -8.403000000    -1.384000000     2.898000000
O    -5.444000000    -2.598000000     5.049000000
H    -4.958000000    -3.378000000     5.315000000
H    -5.624000000    -2.137000000     5.868000000
