158
-2999.35852
C    -0.660000000     1.242000000    -0.491000000
H    -1.124000000     2.155000000    -0.855000000
C     0.732000000     1.082000000    -0.566000000
H     1.412000000     1.892000000    -0.815000000
C     1.195000000    -0.212000000    -0.040000000
H     2.267000000    -0.325000000     0.123000000
C     0.299000000    -1.174000000     0.310000000
H     0.739000000    -2.122000000     0.607000000
C    -1.067000000    -1.024000000     0.238000000
H    -1.779000000    -1.759000000     0.606000000
C    -1.503000000     0.250000000    -0.113000000
C    -3.002000000     0.532000000     0.057000000
O    -3.778000000    -0.325000000     0.512000000
O    -3.492000000     1.652000000    -0.053000000
O     2.640000000     0.103000000    -3.828000000
H     2.302000000     0.994000000    -3.923000000
H     3.536000000     0.219000000    -3.511000000
O     1.746000000     2.349000000    -4.829000000
H     1.977000000     1.941000000    -5.663000000
H     1.137000000     3.048000000    -5.064000000
O     4.216000000    -1.839000000    -0.146000000
H     5.113000000    -1.587000000     0.073000000
H     3.924000000    -1.172000000    -0.766000000
O    -3.921000000     1.398000000    -2.774000000
H    -3.005000000     1.512000000    -3.025000000
H    -3.907000000     1.380000000    -1.817000000
O    -1.413000000     3.595000000     1.762000000
H    -1.050000000     3.844000000     2.612000000
H    -0.906000000     4.103000000     1.127000000
O     1.253000000    -2.155000000    -2.858000000
H     2.095000000    -1.721000000    -2.998000000
H     1.089000000    -2.061000000    -1.919000000
O     0.793000000     4.598000000     0.434000000
H     1.367000000     4.034000000     0.952000000
H     1.346000000     5.339000000     0.186000000
O    -3.326000000    -4.224000000    -2.656000000
H    -2.398000000    -3.995000000    -2.712000000
H    -3.684000000    -3.613000000    -2.012000000
O    -0.843000000    -3.616000000     3.234000000
H    -1.678000000    -3.795000000     3.666000000
H    -0.559000000    -2.778000000     3.599000000
O    -4.205000000    -1.624000000     2.825000000
H    -4.156000000    -1.431000000     1.889000000
H    -4.484000000    -0.800000000     3.225000000
O    -0.665000000    -4.147000000    -3.086000000
H     0.146000000    -3.641000000    -3.031000000
H    -0.943000000    -4.054000000    -3.997000000
O    -6.378000000     4.290000000     1.916000000
H    -5.548000000     3.814000000     1.950000000
H    -6.273000000     4.904000000     1.189000000
O     5.143000000     0.360000000    -2.759000000
H     5.836000000     0.980000000    -2.533000000
H     5.599000000    -0.359000000    -3.198000000
O    -8.098000000     1.801000000     2.728000000
H    -8.432000000     2.429000000     2.087000000
H    -7.491000000     1.251000000     2.232000000
O    -0.396000000    -5.881000000     1.780000000
H    -0.996000000    -5.824000000     1.036000000
H    -0.469000000    -5.031000000     2.213000000
O     6.863000000    -0.691000000     0.726000000
H     7.468000000    -1.105000000     1.342000000
H     7.425000000    -0.162000000     0.159000000
O    -5.315000000    -0.798000000    -3.802000000
H    -5.440000000    -1.014000000    -2.877000000
H    -4.542000000    -0.235000000    -3.814000000
O    -2.003000000     6.800000000    -3.422000000
H    -1.520000000     7.561000000    -3.102000000
H    -1.789000000     6.102000000    -2.803000000
O    -1.131000000     4.488000000    -2.124000000
H    -0.998000000     3.799000000    -2.775000000
H    -0.498000000     4.291000000    -1.434000000
O     0.126000000    -1.280000000     4.150000000
H     0.579000000    -0.779000000     4.828000000
H     0.064000000    -0.678000000     3.408000000
O    -5.190000000     2.967000000    -4.496000000
H    -5.500000000     3.784000000    -4.104000000
H    -4.798000000     2.486000000    -3.767000000
O    -7.619000000    -2.667000000    -1.675000000
H    -8.096000000    -1.838000000    -1.620000000
H    -6.776000000    -2.485000000    -1.261000000
O    -3.839000000     6.116000000     1.119000000
H    -4.040000000     5.440000000     0.472000000
H    -3.007000000     6.487000000     0.826000000
O    -5.824000000     4.830000000    -2.765000000
H    -5.829000000     5.785000000    -2.827000000
H    -5.121000000     4.634000000    -2.146000000
O     4.527000000     0.500000000     5.586000000
H     4.436000000    -0.102000000     4.847000000
H     4.224000000     1.342000000     5.248000000
O    -3.856000000     4.176000000    -1.221000000
H    -3.562000000     3.443000000    -0.679000000
H    -3.057000000     4.503000000    -1.633000000
O    -4.897000000    -2.367000000    -0.938000000
H    -4.439000000    -1.576000000    -0.652000000
H    -4.832000000    -2.964000000    -0.193000000
O    -4.991000000    -4.508000000     1.475000000
H    -5.498000000    -4.033000000     2.133000000
H    -4.079000000    -4.379000000     1.737000000
O     4.579000000     2.363000000    -0.605000000
H     4.032000000     2.880000000    -1.197000000
H     4.796000000     1.577000000    -1.105000000
O     0.074000000     1.061000000     2.681000000
H     0.288000000     1.006000000     1.749000000
H    -0.442000000     1.863000000     2.760000000
O     5.021000000     1.986000000     2.366000000
H     5.661000000     1.349000000     2.684000000
H     5.120000000     1.970000000     1.414000000
O    -6.148000000     2.303000000    -1.147000000
H    -6.371000000     1.824000000    -1.945000000
H    -5.639000000     3.054000000    -1.453000000
O     5.538000000     4.755000000     0.865000000
H     5.359000000     3.870000000     0.546000000
H     5.712000000     5.264000000     0.074000000
O    -1.218000000     6.332000000     0.651000000
H    -0.581000000     5.752000000     0.234000000
H    -0.884000000     7.214000000     0.486000000
O    -7.203000000    -1.923000000     1.523000000
H    -7.124000000    -1.051000000     1.135000000
H    -6.936000000    -1.804000000     2.435000000
O    -1.027000000    -0.380000000    -3.563000000
H    -0.453000000    -0.775000000    -2.908000000
H    -0.615000000    -0.590000000    -4.401000000
O     3.828000000    -3.499000000     2.034000000
H     4.022000000    -4.381000000     1.715000000
H     3.771000000    -2.965000000     1.242000000
O     2.470000000     3.097000000     1.995000000
H     2.230000000     2.442000000     2.651000000
H     3.363000000     3.352000000     2.226000000
O    -4.127000000     2.706000000     2.181000000
H    -4.257000000     2.069000000     1.478000000
H    -3.239000000     3.036000000     2.043000000
O     5.368000000    -1.460000000     3.299000000
H     4.883000000    -2.230000000     3.004000000
H     5.997000000    -1.289000000     2.597000000
O    -1.449000000    -5.765000000    -0.753000000
H    -0.898000000    -5.324000000    -1.400000000
H    -2.017000000    -6.335000000    -1.272000000
O    -5.077000000     0.595000000     4.123000000
H    -4.693000000     1.082000000     3.394000000
H    -5.485000000     1.266000000     4.670000000
O    -1.266000000     2.305000000    -3.955000000
H    -1.046000000     2.400000000    -4.881000000
H    -1.215000000     1.363000000    -3.791000000
O     5.764000000    -3.121000000    -3.418000000
H     5.943000000    -2.356000000    -3.965000000
H     5.095000000    -3.609000000    -3.899000000
O     5.641000000    -4.837000000    -1.390000000
H     5.846000000    -4.370000000    -0.580000000
H     5.784000000    -4.192000000    -2.082000000
O     3.315000000     4.532000000    -1.966000000
H     3.418000000     5.119000000    -1.218000000
H     2.608000000     4.922000000    -2.481000000
O    -6.266000000     0.633000000     0.941000000
H    -6.463000000     1.206000000     0.200000000
H    -5.314000000     0.536000000     0.922000000
O    -3.124000000    -3.556000000     4.713000000
H    -3.563000000    -2.769000000     4.389000000
H    -3.399000000    -3.623000000     5.628000000
