158
-3062.21290
C    -0.661000000     1.202000000    -0.471000000
H    -0.975000000     2.155000000    -0.888000000
C     0.671000000     1.038000000    -0.160000000
H     1.361000000     1.872000000    -0.261000000
C     1.195000000    -0.184000000     0.228000000
H     2.266000000    -0.288000000     0.513000000
C     0.375000000    -1.280000000     0.315000000
H     0.803000000    -2.198000000     0.709000000
C    -0.980000000    -1.117000000     0.060000000
H    -1.637000000    -1.946000000     0.310000000
C    -1.536000000     0.116000000    -0.298000000
C    -3.052000000     0.298000000    -0.330000000
O    -3.753000000    -0.573000000     0.213000000
O    -3.534000000     1.362000000    -0.652000000
O     1.021000000     0.652000000    -3.038000000
H     1.274000000     0.287000000    -2.190000000
H     0.482000000    -0.029000000    -3.440000000
O     3.000000000    -2.804000000    -0.585000000
H     3.247000000    -2.012000000    -0.107000000
H     3.569000000    -2.806000000    -1.355000000
O    -3.572000000     1.023000000    -3.475000000
H    -4.205000000     0.306000000    -3.430000000
H    -3.551000000     1.380000000    -2.587000000
O    -0.361000000     4.633000000     1.481000000
H    -0.446000000     5.036000000     2.346000000
H    -1.063000000     3.983000000     1.450000000
O    -1.532000000    -0.692000000    -3.954000000
H    -1.613000000    -0.821000000    -3.009000000
H    -2.365000000    -0.300000000    -4.215000000
O     2.524000000     3.883000000     0.545000000
H     2.121000000     4.521000000     1.135000000
H     3.465000000     4.032000000     0.638000000
O     3.387000000     1.492000000    -4.808000000
H     4.183000000     1.441000000    -4.280000000
H     2.675000000     1.507000000    -4.168000000
O     6.582000000     1.131000000     0.907000000
H     6.933000000     0.902000000     0.046000000
H     6.898000000     0.439000000     1.487000000
O     3.962000000    -2.963000000     2.609000000
H     4.107000000    -2.373000000     1.869000000
H     3.099000000    -2.719000000     2.943000000
O    -1.552000000    -3.969000000     2.869000000
H    -1.902000000    -3.143000000     3.206000000
H    -0.602000000    -3.870000000     2.935000000
O    -4.059000000     0.148000000     2.727000000
H    -3.957000000    -0.189000000     1.837000000
H    -5.005000000     0.170000000     2.869000000
O    -4.140000000     4.633000000     2.646000000
H    -3.680000000     3.903000000     2.232000000
H    -4.840000000     4.854000000     2.032000000
O     6.400000000     1.443000000    -2.587000000
H     5.686000000     1.747000000    -2.026000000
H     6.797000000     2.245000000    -2.926000000
O    -0.573000000    -4.833000000     0.211000000
H    -1.270000000    -5.283000000    -0.266000000
H    -1.012000000    -4.098000000     0.639000000
O     4.613000000    -0.789000000     0.893000000
H     5.355000000    -1.326000000     0.614000000
H     4.972000000     0.095000000     0.969000000
O    -4.837000000    -1.511000000    -3.715000000
H    -4.582000000    -2.198000000    -3.099000000
H    -5.708000000    -1.241000000    -3.426000000
O    -3.383000000    -5.475000000     1.655000000
H    -4.121000000    -4.893000000     1.837000000
H    -2.613000000    -4.979000000     1.932000000
O     0.821000000     4.637000000    -1.845000000
H     0.739000000     5.574000000    -2.023000000
H     0.960000000     4.585000000    -0.899000000
O     6.027000000    -3.862000000     4.315000000
H     5.659000000    -4.195000000     5.133000000
H     5.327000000    -3.330000000     3.936000000
O    -4.096000000     4.116000000    -3.887000000
H    -5.039000000     4.281000000    -3.887000000
H    -4.019000000     3.172000000    -4.029000000
O    -4.063000000     6.131000000    -0.788000000
H    -3.283000000     5.667000000    -1.093000000
H    -3.774000000     6.592000000     0.000000000
O     4.670000000    -0.369000000     4.220000000
H     3.893000000    -0.607000000     3.714000000
H     4.667000000    -0.974000000     4.962000000
O    -1.736000000     5.538000000    -2.576000000
H    -2.593000000     5.266000000    -2.904000000
H    -1.150000000     4.820000000    -2.813000000
O    -4.350000000    -2.801000000    -1.155000000
H    -4.161000000    -2.157000000    -0.472000000
H    -3.825000000    -3.564000000    -0.916000000
O     3.644000000     2.590000000    -2.181000000
H     3.224000000     2.671000000    -1.325000000
H     3.674000000     3.485000000    -2.519000000
O     7.109000000    -1.801000000     0.444000000
H     7.464000000    -2.090000000    -0.396000000
H     7.622000000    -2.277000000     1.097000000
O     3.779000000    -1.811000000    -4.848000000
H     4.446000000    -1.300000000    -5.307000000
H     2.952000000    -1.536000000    -5.242000000
O    -0.034000000     0.929000000     2.846000000
H    -0.284000000     0.515000000     2.020000000
H     0.810000000     1.341000000     2.662000000
O     6.406000000     1.579000000     4.586000000
H     5.615000000     1.071000000     4.763000000
H     6.888000000     1.058000000     3.943000000
O     0.807000000    -4.721000000    -2.409000000
H     0.315000000    -4.813000000    -1.593000000
H     1.406000000    -3.993000000    -2.246000000
O     5.125000000     3.714000000     0.746000000
H     5.843000000     3.092000000     0.861000000
H     5.231000000     4.040000000    -0.147000000
O    -5.825000000     2.848000000    -0.589000000
H    -5.614000000     3.239000000     0.258000000
H    -5.018000000     2.408000000    -0.857000000
O    -0.473000000     6.795000000    -0.490000000
H    -0.974000000     6.401000000    -1.203000000
H    -0.427000000     6.111000000     0.178000000
O    -7.272000000    -2.029000000     0.962000000
H    -6.875000000    -1.174000000     0.792000000
H    -6.908000000    -2.298000000     1.806000000
O    -8.740000000     2.998000000    -0.514000000
H    -8.694000000     3.597000000    -1.260000000
H    -7.841000000     2.689000000    -0.401000000
O     0.966000000     3.118000000    -3.974000000
H     0.825000000     2.239000000    -3.623000000
H     0.989000000     3.683000000    -3.202000000
O     3.622000000    -5.107000000     0.720000000
H     4.239000000    -4.600000000     1.247000000
H     3.191000000    -4.457000000     0.165000000
O     2.713000000     1.915000000     2.677000000
H     3.095000000     2.236000000     3.494000000
H     2.879000000     2.615000000     2.045000000
O    -2.427000000     2.327000000     2.701000000
H    -3.116000000     1.665000000     2.753000000
H    -1.612000000     1.829000000     2.769000000
O     1.755000000    -1.343000000     3.579000000
H     1.003000000    -1.389000000     4.170000000
H     1.758000000    -0.439000000     3.264000000
O    -2.916000000    -5.091000000    -1.156000000
H    -2.973000000    -5.271000000    -2.094000000
H    -3.563000000    -5.674000000    -0.760000000
O    -6.829000000     0.934000000     2.925000000
H    -7.171000000     1.827000000     2.869000000
H    -6.675000000     0.680000000     2.015000000
O     4.806000000    -2.088000000    -2.435000000
H     4.348000000    -2.070000000    -3.276000000
H     5.598000000    -1.570000000    -2.583000000
O     1.100000000    -4.992000000     2.229000000
H     0.471000000    -4.973000000     1.508000000
H     1.777000000    -5.604000000     1.940000000
O     5.445000000    -4.612000000    -2.964000000
H     5.677000000    -4.874000000    -2.073000000
H     5.299000000    -3.668000000    -2.907000000
O    -6.201000000     0.326000000     0.392000000
H    -6.302000000     1.116000000    -0.139000000
H    -5.287000000     0.072000000     0.272000000
O    -6.587000000    -3.725000000    -2.420000000
H    -5.848000000    -3.291000000    -1.993000000
H    -7.059000000    -4.153000000    -1.706000000
O    -2.901000000    -1.881000000     4.292000000
H    -3.058000000    -1.129000000     3.722000000
H    -3.768000000    -2.118000000     4.621000000
