158
-3036.42927
C     0.431000000     0.618000000    -1.294000000
H     0.762000000     0.948000000    -2.276000000
C     1.228000000     0.452000000    -0.184000000
H     2.269000000     0.716000000    -0.353000000
C     0.750000000    -0.168000000     0.935000000
H     1.410000000    -0.347000000     1.712000000
C    -0.553000000    -0.567000000     1.045000000
H    -0.888000000    -1.109000000     1.925000000
C    -1.399000000    -0.366000000    -0.059000000
H    -2.465000000    -0.531000000     0.072000000
C    -0.933000000     0.239000000    -1.224000000
C    -1.869000000     0.355000000    -2.417000000
O    -2.779000000    -0.452000000    -2.405000000
O    -1.689000000     1.096000000    -3.333000000
O     3.398000000    -0.900000000    -3.751000000
H     2.932000000    -0.174000000    -4.165000000
H     3.711000000    -1.432000000    -4.483000000
O     2.380000000     1.425000000    -4.444000000
H     2.879000000     1.793000000    -5.174000000
H     2.223000000     2.168000000    -3.862000000
O    -2.976000000    -0.578000000    -5.454000000
H    -2.879000000    -0.353000000    -4.529000000
H    -2.780000000    -1.514000000    -5.495000000
O    -1.753000000     3.951000000    -2.519000000
H    -2.331000000     3.694000000    -1.801000000
H    -1.556000000     3.131000000    -2.973000000
O    -0.041000000     0.264000000    -5.784000000
H     0.546000000     0.857000000    -5.316000000
H    -0.906000000     0.665000000    -5.697000000
O     0.188000000    -4.448000000     3.475000000
H    -0.338000000    -4.210000000     2.711000000
H    -0.144000000    -5.308000000     3.735000000
O     3.267000000     4.315000000    -0.026000000
H     2.414000000     4.743000000     0.052000000
H     3.375000000     3.844000000     0.801000000
O     5.136000000     0.943000000    -2.307000000
H     4.264000000     0.606000000    -2.103000000
H     5.009000000     1.885000000    -2.419000000
O    -0.515000000    -0.244000000     5.479000000
H    -0.059000000    -0.987000000     5.875000000
H    -1.424000000    -0.533000000     5.405000000
O    -0.580000000     3.601000000    -7.088000000
H    -0.481000000     3.178000000    -7.940000000
H    -1.287000000     3.118000000    -6.661000000
O    -4.498000000    -3.966000000    -5.172000000
H    -5.223000000    -4.495000000    -4.841000000
H    -3.871000000    -3.940000000    -4.449000000
O     3.359000000    -3.294000000     0.733000000
H     4.228000000    -3.242000000     0.335000000
H     3.530000000    -3.410000000     1.668000000
O    -3.758000000    -0.053000000     3.553000000
H    -3.574000000     0.532000000     4.288000000
H    -3.084000000    -0.730000000     3.610000000
O     4.844000000     0.335000000     5.134000000
H     5.565000000     0.947000000     5.281000000
H     4.056000000     0.840000000     5.338000000
O    -0.546000000     2.689000000     0.783000000
H    -0.322000000     2.707000000     1.714000000
H    -0.300000000     1.810000000     0.495000000
O     1.471000000     0.219000000     8.203000000
H     1.097000000     0.671000000     8.958000000
H     1.394000000     0.847000000     7.485000000
O     3.904000000     3.288000000     2.427000000
H     3.703000000     2.411000000     2.754000000
H     4.847000000     3.271000000     2.262000000
O    -1.348000000     1.371000000     7.405000000
H    -2.138000000     1.649000000     6.942000000
H    -0.895000000     0.800000000     6.784000000
O     4.518000000     3.605000000    -2.280000000
H     5.460000000     3.750000000    -2.196000000
H     4.156000000     3.892000000    -1.441000000
O    -3.930000000    -1.486000000     6.100000000
H    -3.545000000    -1.807000000     5.285000000
H    -3.884000000    -2.233000000     6.697000000
O    -5.975000000    -2.715000000    -2.599000000
H    -5.648000000    -2.340000000    -3.417000000
H    -5.193000000    -2.831000000    -2.060000000
O    -2.088000000    -2.723000000    -3.776000000
H    -1.370000000    -3.086000000    -3.257000000
H    -2.285000000    -1.884000000    -3.359000000
O     2.837000000     1.786000000     5.926000000
H     3.235000000     2.308000000     6.624000000
H     2.177000000     2.364000000     5.542000000
O    -1.773000000     6.338000000    -4.149000000
H    -2.506000000     6.073000000    -4.706000000
H    -1.724000000     5.657000000    -3.479000000
O    -1.321000000     5.441000000     0.697000000
H    -2.154000000     5.214000000     1.111000000
H    -0.978000000     4.608000000     0.376000000
O     3.477000000    -2.456000000     5.963000000
H     3.975000000    -1.648000000     6.082000000
H     3.087000000    -2.626000000     6.821000000
O    -3.067000000     5.036000000    -6.199000000
H    -2.543000000     5.179000000    -6.987000000
H    -2.769000000     4.191000000    -5.863000000
O    -1.682000000    -4.246000000    -0.755000000
H    -1.778000000    -5.081000000    -1.213000000
H    -1.123000000    -3.721000000    -1.328000000
O    -2.057000000    -4.453000000     2.007000000
H    -2.647000000    -5.208000000     2.012000000
H    -1.984000000    -4.211000000     1.084000000
O     0.141000000    -3.920000000    -2.582000000
H     0.492000000    -4.805000000    -2.677000000
H     0.915000000    -3.357000000    -2.560000000
O    -4.352000000     1.664000000     0.774000000
H    -4.796000000     0.869000000     1.069000000
H    -3.437000000     1.535000000     1.026000000
O     1.623000000     4.183000000    -3.688000000
H     2.397000000     4.696000000    -3.921000000
H     1.027000000     4.300000000    -4.427000000
O     5.955000000    -2.218000000     4.608000000
H     6.766000000    -1.800000000     4.895000000
H     5.293000000    -1.530000000     4.677000000
O    -0.562000000     2.257000000     4.295000000
H     0.193000000     2.717000000     4.662000000
H    -0.328000000     1.330000000     4.350000000
O     1.923000000    -2.674000000    -5.372000000
H     1.216000000    -2.031000000    -5.308000000
H     1.499000000    -3.515000000    -5.200000000
O    -2.246000000    -2.210000000     3.951000000
H    -1.611000000    -2.715000000     4.460000000
H    -2.398000000    -2.738000000     3.167000000
O     0.211000000    -2.861000000     5.659000000
H     1.079000000    -2.914000000     6.060000000
H     0.290000000    -3.366000000     4.850000000
O     0.811000000     4.594000000    -1.100000000
H     1.214000000     4.396000000    -1.945000000
H     0.057000000     4.006000000    -1.051000000
O    -2.633000000     2.442000000    -5.563000000
H    -3.529000000     2.106000000    -5.544000000
H    -2.181000000     1.958000000    -4.872000000
O     2.277000000    -2.489000000    -1.799000000
H     2.296000000    -2.379000000    -0.848000000
H     2.459000000    -1.615000000    -2.144000000
O     3.014000000    -3.960000000     3.709000000
H     3.022000000    -3.324000000     4.425000000
H     2.091000000    -4.192000000     3.607000000
O     1.122000000     3.978000000     5.586000000
H     1.782000000     4.581000000     5.928000000
H     0.299000000     4.283000000     5.967000000
O    -5.239000000    -0.815000000     1.249000000
H    -4.687000000    -1.464000000     0.812000000
H    -4.932000000    -0.811000000     2.156000000
O    -3.793000000    -2.495000000    -1.046000000
H    -3.569000000    -2.010000000    -1.841000000
H    -3.154000000    -3.207000000    -1.011000000
O    -2.925000000     0.084000000    -8.138000000
H    -2.930000000     0.111000000    -7.181000000
H    -2.026000000    -0.153000000    -8.366000000
O     2.017000000    -5.999000000     0.186000000
H     2.636000000    -5.382000000     0.576000000
H     1.342000000    -5.446000000    -0.207000000
O    -4.878000000     1.405000000    -2.118000000
H    -4.935000000     1.449000000    -1.163000000
H    -4.121000000     0.845000000    -2.288000000
O    -6.459000000     0.818000000    -4.405000000
H    -6.040000000     1.370000000    -5.066000000
H    -5.956000000     0.978000000    -3.606000000
