158
-3042.60888
C     1.109000000    -0.113000000    -0.933000000
H     2.024000000    -0.107000000    -1.519000000
C     1.199000000     0.192000000     0.413000000
H     2.109000000     0.538000000     0.896000000
C     0.094000000     0.251000000     1.209000000
H     0.112000000     0.585000000     2.240000000
C    -1.185000000    -0.096000000     0.645000000
H    -2.042000000    -0.016000000     1.309000000
C    -1.246000000    -0.506000000    -0.701000000
H    -2.200000000    -0.834000000    -1.108000000
C    -0.126000000    -0.328000000    -1.534000000
C    -0.192000000    -0.489000000    -3.086000000
O    -1.220000000    -0.751000000    -3.698000000
O     0.796000000    -0.617000000    -3.711000000
O    -4.415000000    -2.320000000    -2.832000000
H    -3.710000000    -2.958000000    -2.947000000
H    -4.693000000    -2.106000000    -3.722000000
O     0.348000000    -3.057000000    -6.092000000
H    -0.125000000    -2.557000000    -5.426000000
H     1.037000000    -3.510000000    -5.606000000
O     0.726000000     4.636000000     6.341000000
H     0.585000000     5.220000000     7.086000000
H    -0.004000000     4.018000000     6.379000000
O    -2.169000000     0.729000000    -5.822000000
H    -1.526000000     0.840000000    -6.522000000
H    -1.721000000     0.192000000    -5.168000000
O    -0.455000000     6.896000000     2.144000000
H     0.087000000     7.684000000     2.100000000
H    -0.010000000     6.334000000     2.778000000
O     2.885000000    -1.647000000     5.403000000
H     2.322000000    -1.044000000     5.889000000
H     3.736000000    -1.210000000     5.375000000
O     1.057000000    -4.206000000     0.896000000
H     0.208000000    -3.768000000     0.957000000
H     1.605000000    -3.757000000     1.540000000
O    -0.576000000     2.729000000     0.206000000
H    -0.839000000     2.962000000     1.096000000
H    -0.340000000     1.803000000     0.261000000
O    -5.795000000    -1.316000000    -4.875000000
H    -6.199000000    -0.823000000    -4.161000000
H    -5.781000000    -0.704000000    -5.611000000
O    -2.655000000    -1.986000000    -7.014000000
H    -1.834000000    -1.816000000    -6.553000000
H    -2.815000000    -2.921000000    -6.881000000
O     2.118000000     3.558000000     2.576000000
H     1.498000000     3.369000000     1.871000000
H     1.732000000     4.301000000     3.041000000
O    -4.118000000     3.103000000    -0.897000000
H    -3.579000000     2.575000000    -1.486000000
H    -4.134000000     3.971000000    -1.301000000
O     1.510000000     3.855000000    -3.169000000
H     1.704000000     4.334000000    -2.363000000
H     0.673000000     3.425000000    -2.997000000
O    -4.412000000    -2.098000000     0.762000000
H    -3.736000000    -2.479000000     0.201000000
H    -5.099000000    -1.823000000     0.155000000
O     3.827000000     2.494000000    -2.872000000
H     3.505000000     3.134000000    -3.506000000
H     3.730000000     2.928000000    -2.024000000
O     0.493000000    -4.092000000    -2.324000000
H     0.963000000    -4.622000000    -2.969000000
H     0.456000000    -4.643000000    -1.542000000
O    -6.179000000    -0.909000000    -1.183000000
H    -6.755000000    -1.559000000    -1.587000000
H    -5.349000000    -1.000000000    -1.651000000
O    -2.771000000    -4.469000000    -5.939000000
H    -3.717000000    -4.524000000    -5.801000000
H    -2.422000000    -4.183000000    -5.096000000
O     4.463000000    -1.806000000    -6.425000000
H     3.735000000    -1.202000000    -6.567000000
H     4.268000000    -2.554000000    -6.990000000
O    -0.984000000    -2.474000000     4.710000000
H    -0.526000000    -2.861000000     3.964000000
H    -1.854000000    -2.261000000     4.373000000
O     4.800000000    -0.548000000    -1.770000000
H     4.153000000     0.082000000    -2.088000000
H     4.507000000    -1.389000000    -2.120000000
O    -3.887000000     1.363000000     3.356000000
H    -4.176000000     1.087000000     2.486000000
H    -3.626000000     0.551000000     3.790000000
O    -0.825000000     0.292000000    -8.197000000
H    -0.436000000     0.221000000    -9.068000000
H    -1.509000000    -0.379000000    -8.185000000
O     3.337000000    -3.273000000    -1.298000000
H     3.080000000    -3.008000000    -2.181000000
H     2.692000000    -2.857000000    -0.726000000
O     1.377000000     5.959000000     3.886000000
H     1.299000000     6.895000000     4.071000000
H     1.109000000     5.531000000     4.699000000
O    -5.088000000     1.079000000     0.909000000
H    -5.047000000     1.756000000     0.233000000
H    -5.620000000     0.385000000     0.521000000
O    -1.973000000    -3.230000000    -3.369000000
H    -1.121000000    -3.590000000    -3.121000000
H    -1.832000000    -2.283000000    -3.399000000
O     2.115000000     2.458000000     5.370000000
H     2.199000000     2.384000000     4.419000000
H     1.950000000     3.388000000     5.525000000
O     5.870000000    -1.403000000     0.562000000
H     5.553000000    -1.109000000    -0.291000000
H     5.486000000    -2.272000000     0.674000000
O    -0.797000000    -2.042000000     7.422000000
H     0.123000000    -1.783000000     7.368000000
H    -1.021000000    -2.316000000     6.532000000
O     2.561000000    -2.552000000    -3.732000000
H     1.868000000    -1.905000000    -3.861000000
H     3.280000000    -2.246000000    -4.284000000
O     7.366000000     0.937000000    -2.718000000
H     7.327000000     1.844000000    -3.021000000
H     6.476000000     0.744000000    -2.423000000
O    -2.581000000     3.647000000    -6.385000000
H    -1.919000000     4.288000000    -6.124000000
H    -2.509000000     2.950000000    -5.733000000
O     1.343000000     0.221000000     6.579000000
H     1.646000000     0.173000000     7.486000000
H     1.681000000     1.057000000     6.258000000
O     2.189000000    -0.133000000    -7.320000000
H     1.462000000    -0.559000000    -7.774000000
H     1.885000000    -0.036000000    -6.418000000
O    -2.668000000    -3.630000000    -0.756000000
H    -2.858000000    -4.553000000    -0.922000000
H    -2.060000000    -3.382000000    -1.453000000
O     4.731000000     3.243000000     3.056000000
H     4.884000000     3.835000000     3.792000000
H     3.807000000     3.364000000     2.838000000
O    -3.173000000    -1.597000000     3.166000000
H    -3.535000000    -1.411000000     2.300000000
H    -3.857000000    -1.320000000     3.776000000
O    -5.357000000     0.309000000    -7.003000000
H    -4.541000000     0.441000000    -6.521000000
H    -5.645000000     1.192000000    -7.234000000
O     2.112000000    -2.413000000     2.983000000
H     2.294000000    -2.431000000     3.923000000
H     2.111000000    -1.483000000     2.757000000
O    -1.442000000     3.011000000     6.416000000
H    -2.121000000     3.461000000     5.914000000
H    -1.416000000     2.129000000     6.047000000
O    -1.559000000     3.205000000     2.760000000
H    -2.102000000     3.975000000     2.928000000
H    -2.120000000     2.463000000     2.983000000
O    -1.175000000     0.297000000     5.314000000
H    -0.267000000     0.310000000     5.616000000
H    -1.304000000    -0.592000000     4.983000000
O    -1.336000000     3.065000000    -2.745000000
H    -1.033000000     2.856000000    -1.861000000
H    -2.171000000     2.604000000    -2.827000000
O    -1.464000000    -3.361000000     1.659000000
H    -1.706000000    -2.488000000     1.968000000
H    -1.792000000    -3.396000000     0.760000000
O     3.260000000     0.264000000    -4.502000000
H     2.446000000    -0.136000000    -4.196000000
H     3.368000000     1.039000000    -3.951000000
O     3.380000000     4.170000000    -0.187000000
H     2.991000000     4.827000000    -0.765000000
H     2.778000000     4.119000000     0.555000000
O    -3.117000000     1.103000000    -2.770000000
H    -3.909000000     1.305000000    -3.269000000
H    -2.668000000     0.439000000    -3.293000000
