158
-3055.44387
C     0.844000000     0.870000000    -0.941000000
H     1.457000000     1.529000000    -1.550000000
C     1.018000000     0.771000000     0.449000000
H     1.891000000     1.257000000     0.876000000
C     0.183000000    -0.097000000     1.182000000
H     0.425000000    -0.196000000     2.312000000
C    -0.920000000    -0.729000000     0.673000000
H    -1.567000000    -1.329000000     1.307000000
C    -1.134000000    -0.610000000    -0.762000000
H    -2.023000000    -1.059000000    -1.198000000
C    -0.258000000     0.220000000    -1.535000000
C    -0.439000000     0.278000000    -3.020000000
O    -1.511000000     0.062000000    -3.507000000
O     0.511000000     0.687000000    -3.655000000
O    -5.249000000    -3.529000000    -2.368000000
H    -4.492000000    -2.953000000    -2.480000000
H    -5.332000000    -3.981000000    -3.207000000
O     1.068000000    -1.249000000    -5.568000000
H     0.905000000    -0.509000000    -4.984000000
H     1.414000000    -1.934000000    -4.995000000
O    -1.605000000     1.754000000    -5.939000000
H    -1.082000000     2.553000000    -5.873000000
H    -1.370000000     1.249000000    -5.161000000
O     3.100000000     4.900000000    -3.611000000
H     2.323000000     4.341000000    -3.642000000
H     2.752000000     5.789000000    -3.529000000
O     3.229000000    -1.272000000     3.440000000
H     3.839000000    -0.861000000     2.828000000
H     3.156000000    -0.648000000     4.162000000
O     4.620000000    -0.330000000     1.012000000
H     4.328000000     0.542000000     0.745000000
H     4.602000000    -0.846000000     0.206000000
O     0.237000000    -4.833000000     2.375000000
H     0.485000000    -5.415000000     1.656000000
H     0.975000000    -4.875000000     2.983000000
O    -2.075000000    -5.326000000     0.486000000
H    -1.678000000    -4.776000000     1.161000000
H    -2.991000000    -5.047000000     0.459000000
O    -3.033000000     2.757000000    -0.620000000
H    -3.104000000     3.262000000     0.190000000
H    -3.417000000     1.907000000    -0.407000000
O    -1.504000000    -2.012000000    -6.178000000
H    -0.705000000    -1.561000000    -5.905000000
H    -1.226000000    -2.577000000    -6.899000000
O    -3.410000000     0.140000000    -7.063000000
H    -2.901000000    -0.644000000    -6.854000000
H    -2.814000000     0.867000000    -6.882000000
O    -0.001000000    -0.551000000     5.568000000
H    -0.479000000    -0.082000000     4.885000000
H    -0.642000000    -0.675000000     6.268000000
O    -4.840000000     0.427000000    -0.328000000
H    -5.243000000     1.179000000     0.106000000
H    -5.537000000     0.064000000    -0.875000000
O     2.623000000    -2.416000000     6.017000000
H     2.325000000    -1.552000000     5.733000000
H     2.617000000    -2.945000000     5.220000000
O    -0.944000000    -2.721000000     3.717000000
H    -0.417000000    -3.276000000     3.142000000
H    -0.349000000    -2.020000000     3.983000000
O     1.777000000     3.900000000    -0.449000000
H     1.419000000     3.850000000     0.437000000
H     1.186000000     3.363000000    -0.977000000
O     2.211000000    -1.008000000    -8.088000000
H     1.873000000    -1.320000000    -7.248000000
H     1.697000000    -1.480000000    -8.743000000
O    -2.366000000    -5.189000000     3.915000000
H    -1.627000000    -4.590000000     4.020000000
H    -3.016000000    -4.880000000     4.546000000
O     3.208000000    -1.401000000    -1.844000000
H     3.128000000    -0.768000000    -2.558000000
H     3.946000000    -1.955000000    -2.097000000
O     0.610000000     2.910000000     5.202000000
H    -0.061000000     3.363000000     5.712000000
H     0.123000000     2.452000000     4.517000000
O     1.910000000    -2.904000000    -0.038000000
H     2.362000000    -2.362000000    -0.685000000
H     1.371000000    -2.286000000     0.456000000
O    -3.844000000     0.869000000     4.346000000
H    -4.003000000     1.109000000     5.259000000
H    -3.715000000    -0.079000000     4.367000000
O    -1.042000000     3.857000000    -2.061000000
H    -1.781000000     3.468000000    -1.593000000
H    -1.258000000     4.788000000    -2.117000000
O     3.257000000     4.856000000     2.070000000
H     2.388000000     4.478000000     2.203000000
H     3.113000000     5.802000000     2.089000000
O    -2.926000000    -2.235000000    -3.743000000
H    -2.486000000    -2.279000000    -4.592000000
H    -2.661000000    -1.390000000    -3.380000000
O     6.017000000    -0.156000000     3.415000000
H     6.712000000     0.502000000     3.417000000
H     5.994000000    -0.478000000     2.514000000
O    -4.713000000    -4.343000000     0.231000000
H    -5.114000000    -4.324000000    -0.638000000
H    -5.446000000    -4.488000000     0.829000000
O     4.271000000     2.646000000    -0.224000000
H     4.807000000     3.233000000     0.310000000
H     3.483000000     3.153000000    -0.419000000
O     2.264000000     0.673000000     5.671000000
H     1.821000000     1.497000000     5.469000000
H     1.559000000     0.080000000     5.932000000
O     4.842000000    -3.592000000     0.376000000
H     3.890000000    -3.567000000     0.277000000
H     5.179000000    -3.329000000    -0.480000000
O    -3.401000000    -2.017000000     4.183000000
H    -3.883000000    -1.873000000     3.369000000
H    -2.521000000    -2.264000000     3.900000000
O     3.330000000     0.586000000    -4.117000000
H     2.405000000     0.812000000    -4.219000000
H     3.760000000     0.988000000    -4.872000000
O     5.150000000     1.169000000    -2.215000000
H     4.475000000     0.918000000    -2.846000000
H     4.673000000     1.623000000    -1.521000000
O     0.204000000     3.947000000     1.945000000
H    -0.423000000     4.379000000     2.524000000
H    -0.027000000     3.019000000     1.990000000
O    -1.404000000     1.696000000     3.278000000
H    -2.281000000     1.764000000     3.657000000
H    -1.491000000     1.033000000     2.593000000
O    -5.212000000    -0.843000000    -5.381000000
H    -4.786000000    -1.700000000    -5.352000000
H    -4.938000000    -0.468000000    -6.218000000
O     2.732000000    -4.114000000     3.770000000
H     2.941000000    -3.240000000     3.441000000
H     3.546000000    -4.608000000     3.671000000
O    -3.021000000     4.187000000    -6.145000000
H    -3.081000000     3.245000000    -6.304000000
H    -2.083000000     4.373000000    -6.160000000
O    -1.672000000    -0.569000000     7.724000000
H    -1.388000000     0.040000000     8.406000000
H    -2.548000000    -0.268000000     7.483000000
O    -4.488000000     4.047000000    -2.938000000
H    -3.905000000     3.964000000    -2.184000000
H    -4.332000000     3.253000000    -3.450000000
O    -0.300000000     4.430000000    -5.948000000
H    -0.391000000     5.339000000    -5.660000000
H     0.254000000     4.023000000    -5.282000000
O    -4.568000000    -1.693000000     1.591000000
H    -4.460000000    -2.579000000     1.246000000
H    -4.525000000    -1.128000000     0.819000000
O    -1.323000000    -4.741000000    -2.841000000
H    -0.372000000    -4.637000000    -2.797000000
H    -1.662000000    -3.846000000    -2.836000000
O     0.885000000     3.378000000    -3.727000000
H     0.808000000     2.428000000    -3.803000000
H     0.249000000     3.617000000    -3.053000000
O     4.109000000     2.072000000     7.153000000
H     3.854000000     1.661000000     6.328000000
H     4.595000000     1.392000000     7.620000000
O    -3.965000000     1.494000000    -4.024000000
H    -4.569000000     0.770000000    -4.189000000
H    -3.141000000     1.069000000    -3.787000000
O     2.219000000    -5.683000000    -0.154000000
H     1.991000000    -4.753000000    -0.137000000
H     1.375000000    -6.135000000    -0.145000000
O     5.730000000     3.176000000     3.994000000
H     6.503000000     2.976000000     3.465000000
H     4.994000000     3.068000000     3.392000000
