158
-3056.40286
C     0.859000000     0.572000000    -1.084000000
H     1.539000000     0.897000000    -1.868000000
C     1.254000000     0.429000000     0.264000000
H     2.274000000     0.609000000     0.594000000
C     0.337000000    -0.117000000     1.144000000
H     0.584000000    -0.093000000     2.173000000
C    -0.949000000    -0.470000000     0.741000000
H    -1.661000000    -0.913000000     1.432000000
C    -1.278000000    -0.406000000    -0.615000000
H    -2.276000000    -0.677000000    -0.949000000
C    -0.379000000     0.215000000    -1.532000000
C    -0.738000000     0.253000000    -2.921000000
O    -1.923000000     0.059000000    -3.210000000
O     0.070000000     0.557000000    -3.819000000
O    -1.796000000    -3.817000000     5.827000000
H    -0.867000000    -3.686000000     6.016000000
H    -2.024000000    -4.622000000     6.293000000
O    -5.185000000    -2.995000000    -3.804000000
H    -4.234000000    -2.968000000    -3.702000000
H    -5.397000000    -3.928000000    -3.830000000
O     1.104000000    -0.002000000    -6.248000000
H     0.654000000     0.192000000    -5.425000000
H     1.444000000    -0.888000000    -6.132000000
O    -0.166000000     3.164000000    -4.515000000
H    -0.124000000     2.208000000    -4.515000000
H     0.543000000     3.435000000    -3.932000000
O     3.971000000     2.350000000    -3.656000000
H     3.157000000     2.786000000    -3.906000000
H     4.647000000     2.792000000    -4.169000000
O     2.018000000     4.332000000    -3.788000000
H     1.611000000     5.028000000    -3.272000000
H     2.091000000     4.698000000    -4.669000000
O     3.338000000    -2.223000000     1.923000000
H     3.599000000    -3.048000000     1.514000000
H     3.311000000    -1.596000000     1.201000000
O     5.734000000     1.794000000    -1.715000000
H     4.969000000     1.964000000    -2.265000000
H     6.377000000     1.412000000    -2.312000000
O    -2.535000000    -2.337000000    -3.892000000
H    -2.261000000    -1.426000000    -3.789000000
H    -1.923000000    -2.834000000    -3.348000000
O    -4.968000000    -1.198000000    -5.950000000
H    -4.843000000    -1.635000000    -5.108000000
H    -4.199000000    -0.636000000    -6.044000000
O    -1.524000000     1.034000000    -7.442000000
H    -0.663000000     0.775000000    -7.113000000
H    -2.069000000     1.104000000    -6.658000000
O     1.196000000    -2.737000000     3.781000000
H     1.794000000    -2.535000000     3.061000000
H     0.348000000    -2.404000000     3.490000000
O    -1.472000000     3.115000000    -0.412000000
H    -1.833000000     2.998000000     0.467000000
H    -2.068000000     2.629000000    -0.982000000
O     1.585000000    -5.581000000     3.587000000
H     2.199000000    -5.582000000     4.322000000
H     1.375000000    -4.657000000     3.452000000
O     3.769000000    -2.081000000     5.220000000
H     2.976000000    -2.324000000     4.743000000
H     4.359000000    -1.741000000     4.547000000
O    -2.885000000    -4.440000000     1.428000000
H    -3.553000000    -4.917000000     0.935000000
H    -2.101000000    -4.494000000     0.881000000
O     1.225000000     3.941000000    -0.084000000
H     1.452000000     4.387000000    -0.899000000
H     0.268000000     3.935000000    -0.073000000
O    -4.963000000     1.548000000     2.722000000
H    -5.781000000     1.400000000     2.247000000
H    -5.105000000     1.141000000     3.577000000
O     2.207000000     3.107000000     2.336000000
H     1.538000000     3.018000000     3.016000000
H     1.711000000     3.210000000     1.524000000
O    -4.318000000     0.466000000     5.150000000
H    -3.494000000     0.458000000     4.662000000
H    -4.487000000    -0.455000000     5.349000000
O    -5.586000000    -4.085000000     2.796000000
H    -4.703000000    -3.726000000     2.878000000
H    -5.514000000    -4.977000000     3.135000000
O     4.280000000    -0.750000000    -0.351000000
H     4.628000000     0.101000000    -0.618000000
H     5.006000000    -1.172000000     0.109000000
O    -2.850000000     1.646000000     7.321000000
H    -3.457000000     1.346000000     6.644000000
H    -2.051000000     1.142000000     7.166000000
O     1.637000000     2.441000000     6.074000000
H     0.999000000     2.434000000     5.360000000
H     1.527000000     3.299000000     6.485000000
O     0.896000000    -2.832000000    -0.239000000
H     1.514000000    -2.470000000    -0.873000000
H     0.490000000    -2.065000000     0.165000000
O     4.361000000     2.636000000     5.630000000
H     3.456000000     2.711000000     5.933000000
H     4.298000000     2.680000000     4.676000000
O    -1.661000000    -0.116000000     4.574000000
H    -1.181000000    -0.065000000     5.402000000
H    -1.685000000    -1.050000000     4.369000000
O     0.719000000    -4.120000000    -3.481000000
H     1.131000000    -3.632000000    -2.768000000
H     1.173000000    -4.962000000    -3.488000000
O    -1.104000000     4.527000000    -6.508000000
H    -0.975000000     3.820000000    -7.140000000
H    -0.773000000     4.174000000    -5.682000000
O    -6.419000000     1.075000000    -1.166000000
H    -6.505000000     0.464000000    -1.898000000
H    -5.547000000     1.455000000    -1.274000000
O     4.830000000     3.107000000     0.618000000
H     4.994000000     2.626000000    -0.194000000
H     3.877000000     3.107000000     0.708000000
O     4.208000000     1.123000000     2.803000000
H     4.016000000     1.853000000     2.215000000
H     3.356000000     0.722000000     2.973000000
O    -1.592000000    -2.864000000     3.368000000
H    -1.784000000    -3.452000000     4.098000000
H    -1.946000000    -3.313000000     2.600000000
O     2.753000000    -2.243000000    -2.087000000
H     3.275000000    -1.923000000    -1.352000000
H     2.817000000    -1.552000000    -2.746000000
O     0.951000000    -3.678000000     6.102000000
H     1.052000000    -3.320000000     5.220000000
H     1.141000000    -2.942000000     6.683000000
O     0.830000000    -2.734000000    -6.004000000
H     0.269000000    -3.340000000    -6.489000000
H     0.667000000    -2.942000000    -5.084000000
O    -4.894000000    -4.865000000    -0.396000000
H    -4.763000000    -4.557000000    -1.292000000
H    -5.340000000    -4.140000000     0.044000000
O    -3.251000000     0.936000000    -5.477000000
H    -3.869000000     1.528000000    -5.048000000
H    -2.760000000     0.540000000    -4.757000000
O     1.563000000     1.056000000    -8.856000000
H     1.725000000     0.113000000    -8.874000000
H     1.652000000     1.297000000    -7.934000000
O     2.279000000     5.875000000     2.817000000
H     2.502000000     4.962000000     2.639000000
H     2.808000000     6.377000000     2.197000000
O    -0.401000000     0.435000000     6.882000000
H    -0.057000000    -0.287000000     7.407000000
H     0.375000000     0.924000000     6.609000000
O    -4.541000000     3.302000000    -4.309000000
H    -5.417000000     3.649000000    -4.141000000
H    -4.009000000     4.074000000    -4.500000000
O    -3.324000000     1.978000000    -2.051000000
H    -3.001000000     1.116000000    -2.313000000
H    -3.628000000     2.378000000    -2.866000000
O    -0.673000000    -5.004000000    -0.122000000
H    -0.180000000    -4.184000000    -0.144000000
H    -1.005000000    -5.107000000    -1.013000000
O     3.247000000     0.576000000     8.179000000
H     3.353000000     0.413000000     7.242000000
H     2.817000000     1.430000000     8.227000000
O     2.871000000    -0.231000000    -3.840000000
H     1.947000000    -0.015000000    -3.712000000
H     3.316000000     0.616000000    -3.847000000
O    -0.257000000     2.584000000     4.192000000
H    -0.735000000     3.364000000     3.910000000
H    -0.908000000     1.883000000     4.169000000
O     6.120000000    -0.481000000     4.052000000
H     5.587000000     0.182000000     3.614000000
H     6.139000000    -1.216000000     3.440000000
