158
-3014.48865
C     1.304000000     0.754000000    -0.158000000
H     2.285000000     1.219000000    -0.099000000
C     1.062000000    -0.373000000     0.653000000
H     1.839000000    -0.811000000     1.274000000
C    -0.191000000    -1.039000000     0.654000000
H    -0.345000000    -2.010000000     1.253000000
C    -1.174000000    -0.543000000    -0.105000000
H    -2.176000000    -0.962000000    -0.118000000
C    -1.005000000     0.630000000    -0.908000000
H    -1.743000000     0.969000000    -1.632000000
C     0.190000000     1.305000000    -0.884000000
C     0.306000000     2.549000000    -1.709000000
O    -0.485000000     2.935000000    -2.499000000
O     1.207000000     3.297000000    -1.439000000
O     0.391000000    -3.079000000    -2.065000000
H    -0.116000000    -3.787000000    -1.668000000
H    -0.193000000    -2.321000000    -2.038000000
O    -2.165000000     5.134000000     2.085000000
H    -1.860000000     5.908000000     1.612000000
H    -2.048000000     4.413000000     1.467000000
O    -4.211000000     0.060000000    -4.744000000
H    -4.562000000    -0.758000000    -5.097000000
H    -3.387000000    -0.192000000    -4.328000000
O    -2.926000000     3.213000000    -0.930000000
H    -3.334000000     2.679000000    -1.612000000
H    -2.236000000     3.696000000    -1.385000000
O     1.665000000    -3.805000000     6.169000000
H     1.525000000    -3.298000000     6.968000000
H     1.637000000    -3.156000000     5.466000000
O    -0.397000000     2.297000000    -6.492000000
H    -0.959000000     2.835000000    -7.050000000
H    -0.849000000     2.273000000    -5.649000000
O     0.872000000     3.986000000     1.096000000
H     0.434000000     3.284000000     1.577000000
H     0.913000000     3.669000000     0.194000000
O     5.807000000     2.056000000     1.819000000
H     5.654000000     2.293000000     2.734000000
H     5.343000000     1.227000000     1.705000000
O    -1.727000000     6.727000000    -0.210000000
H    -1.078000000     7.380000000    -0.473000000
H    -1.840000000     6.177000000    -0.985000000
O    -2.113000000     2.556000000    -4.639000000
H    -1.544000000     2.914000000    -3.959000000
H    -3.001000000     2.739000000    -4.331000000
O    -3.868000000    -4.755000000     5.889000000
H    -3.266000000    -4.176000000     5.421000000
H    -4.230000000    -4.210000000     6.587000000
O    -3.357000000     5.346000000    -4.466000000
H    -3.042000000     6.192000000    -4.785000000
H    -3.135000000     5.344000000    -3.535000000
O    -1.531000000     5.346000000    -2.449000000
H    -1.032000000     4.530000000    -2.416000000
H    -0.888000000     6.010000000    -2.699000000
O    -3.419000000     1.934000000     1.514000000
H    -4.086000000     2.524000000     1.866000000
H    -3.355000000     2.170000000     0.589000000
O     3.643000000    -2.928000000     2.037000000
H     3.024000000    -3.515000000     1.601000000
H     3.908000000    -3.403000000     2.825000000
O    -1.154000000    -0.578000000    -4.109000000
H    -0.198000000    -0.616000000    -4.079000000
H    -1.357000000     0.357000000    -4.073000000
O     1.549000000     5.319000000    -6.744000000
H     1.603000000     4.913000000    -5.879000000
H     0.944000000     4.761000000    -7.233000000
O     2.951000000     1.687000000    -3.311000000
H     2.739000000     2.267000000    -2.580000000
H     3.891000000     1.525000000    -3.223000000
O    -0.821000000    -3.893000000     2.764000000
H    -0.097000000    -3.287000000     2.919000000
H    -1.326000000    -3.875000000     3.577000000
O     4.903000000    -0.764000000     1.118000000
H     4.801000000    -1.259000000     0.305000000
H     4.501000000    -1.318000000     1.787000000
O    -5.118000000    -1.336000000    -1.323000000
H    -5.127000000    -0.395000000    -1.150000000
H    -4.291000000    -1.640000000    -0.950000000
O    -4.799000000     5.109000000    -0.788000000
H    -4.602000000     5.723000000    -0.081000000
H    -4.045000000     4.519000000    -0.810000000
O    -2.351000000    -4.197000000    -1.665000000
H    -2.843000000    -3.799000000    -0.948000000
H    -1.960000000    -4.982000000    -1.280000000
O     3.310000000    -1.441000000    -1.346000000
H     2.987000000    -2.326000000    -1.518000000
H     2.576000000    -0.870000000    -1.571000000
O    -1.291000000    -6.538000000    -1.100000000
H    -1.779000000    -7.187000000    -1.606000000
H    -0.428000000    -6.933000000    -0.972000000
O     0.302000000     1.963000000     4.609000000
H     0.641000000     2.793000000     4.272000000
H    -0.176000000     1.583000000     3.872000000
O     2.820000000     2.220000000    -6.394000000
H     3.335000000     3.026000000    -6.418000000
H     2.662000000     2.064000000    -5.463000000
O     3.033000000     4.967000000    -1.356000000
H     2.360000000     4.289000000    -1.290000000
H     2.646000000     5.731000000    -0.929000000
O    -1.662000000    -2.849000000     5.637000000
H    -1.284000000    -3.398000000     6.324000000
H    -1.205000000    -2.012000000     5.721000000
O     4.571000000    -1.043000000    -3.642000000
H     4.165000000    -1.241000000    -2.799000000
H     5.274000000    -0.428000000    -3.431000000
O     4.104000000    -3.825000000     5.016000000
H     3.197000000    -3.973000000     5.283000000
H     4.562000000    -4.626000000     5.270000000
O     1.215000000    -1.981000000     4.100000000
H     1.088000000    -1.142000000     4.542000000
H     1.741000000    -1.768000000     3.329000000
O     1.039000000     6.847000000    -3.201000000
H     1.428000000     7.176000000    -2.391000000
H     0.853000000     7.633000000    -3.714000000
O     5.244000000     3.408000000    -0.776000000
H     4.456000000     3.947000000    -0.840000000
H     5.327000000     3.216000000     0.158000000
O    -6.831000000    -3.616000000     0.009000000
H    -6.993000000    -3.028000000     0.747000000
H    -6.173000000    -3.163000000    -0.518000000
O    -4.591000000    -1.370000000     4.960000000
H    -4.572000000    -2.013000000     5.669000000
H    -4.014000000    -1.735000000     4.289000000
O    -3.544000000    -3.010000000     0.385000000
H    -3.266000000    -3.549000000     1.126000000
H    -3.888000000    -2.212000000     0.786000000
O     1.424000000    -4.534000000     1.382000000
H     0.546000000    -4.383000000     1.732000000
H     1.574000000    -5.471000000     1.508000000
O     1.541000000     6.333000000     2.369000000
H     2.230000000     6.694000000     1.810000000
H     1.152000000     5.631000000     1.846000000
O    -0.717000000     1.674000000     2.123000000
H    -1.642000000     1.876000000     1.979000000
H    -0.560000000     0.887000000     1.601000000
O    -3.150000000     1.638000000     4.970000000
H    -3.475000000     0.773000000     4.719000000
H    -2.265000000     1.476000000     5.295000000
O     1.439000000     4.311000000    -4.275000000
H     1.340000000     5.137000000    -3.801000000
H     1.201000000     3.639000000    -3.637000000
O    -4.719000000     1.762000000    -2.699000000
H    -5.673000000     1.768000000    -2.771000000
H    -4.431000000     1.160000000    -3.386000000
O     5.664000000     1.301000000    -2.860000000
H     6.588000000     1.413000000    -3.084000000
H     5.532000000     1.866000000    -2.099000000
O     1.817000000    -0.641000000    -4.180000000
H     2.590000000    -1.132000000    -4.457000000
H     2.164000000     0.193000000    -3.863000000
O    -4.493000000    -0.631000000     1.476000000
H    -3.986000000     0.152000000     1.264000000
H    -5.251000000    -0.302000000     1.960000000
O     2.848000000    -4.217000000    -1.993000000
H     1.966000000    -3.846000000    -1.976000000
H     2.916000000    -4.713000000    -1.178000000
O    -0.901000000    -7.053000000     1.677000000
H    -0.467000000    -6.772000000     0.871000000
H    -1.828000000    -7.104000000     1.443000000
