158
-3053.90281
C     0.243000000     0.914000000    -1.137000000
H     0.269000000     1.764000000    -1.814000000
C     0.139000000     1.239000000     0.254000000
H     0.162000000     2.262000000     0.620000000
C    -0.043000000     0.264000000     1.206000000
H    -0.245000000     0.483000000     2.224000000
C    -0.026000000    -1.027000000     0.779000000
H    -0.102000000    -1.779000000     1.561000000
C     0.080000000    -1.376000000    -0.538000000
H     0.023000000    -2.443000000    -0.739000000
C     0.156000000    -0.430000000    -1.519000000
C     0.153000000    -0.728000000    -2.966000000
O    -0.146000000    -1.870000000    -3.161000000
O     0.305000000     0.049000000    -3.895000000
O     2.706000000    -3.871000000    -1.671000000
H     3.301000000    -3.771000000    -2.414000000
H     2.457000000    -2.976000000    -1.441000000
O    -1.316000000    -1.732000000    -5.772000000
H    -2.056000000    -1.243000000    -5.414000000
H    -0.650000000    -1.696000000    -5.086000000
O    -0.224000000     1.921000000     6.584000000
H    -0.032000000     2.258000000     5.709000000
H     0.417000000     2.349000000     7.151000000
O     0.876000000     1.216000000    -6.247000000
H     0.349000000     0.757000000    -5.593000000
H     1.180000000     2.005000000    -5.798000000
O     2.549000000    -1.465000000    -4.936000000
H     1.805000000    -1.576000000    -4.344000000
H     2.226000000    -0.879000000    -5.620000000
O    -2.176000000    -4.161000000     5.324000000
H    -2.377000000    -3.274000000     5.622000000
H    -2.854000000    -4.707000000     5.722000000
O     4.186000000    -3.426000000    -4.013000000
H     3.574000000    -2.768000000    -4.344000000
H     4.970000000    -3.315000000    -4.550000000
O    -4.943000000    -2.839000000    -4.351000000
H    -4.764000000    -3.693000000    -3.958000000
H    -4.187000000    -2.671000000    -4.913000000
O    -2.593000000    -4.159000000    -6.113000000
H    -2.117000000    -4.554000000    -5.383000000
H    -2.327000000    -3.240000000    -6.104000000
O    -3.469000000    -0.254000000     0.165000000
H    -3.447000000     0.436000000    -0.498000000
H    -2.572000000    -0.585000000     0.197000000
O     2.720000000     5.001000000     2.592000000
H     2.277000000     4.757000000     3.405000000
H     3.043000000     5.888000000     2.753000000
O     2.724000000     1.618000000    -3.207000000
H     2.191000000     0.830000000    -3.318000000
H     2.919000000     1.903000000    -4.099000000
O    -0.888000000     4.883000000    -4.550000000
H    -1.348000000     5.258000000    -3.798000000
H    -1.265000000     4.009000000    -4.649000000
O     3.321000000     1.680000000     5.147000000
H     3.629000000     0.861000000     4.758000000
H     4.069000000     2.273000000     5.080000000
O     1.392000000    -3.447000000     2.881000000
H     1.845000000    -3.784000000     3.654000000
H     1.911000000    -3.765000000     2.142000000
O    -1.720000000     1.734000000    -3.869000000
H    -0.922000000     1.206000000    -3.836000000
H    -1.838000000     1.931000000    -4.798000000
O     5.526000000     1.484000000     2.255000000
H     4.711000000     1.987000000     2.233000000
H     5.986000000     1.737000000     1.455000000
O    -2.304000000     3.775000000     0.041000000
H    -2.713000000     3.102000000    -0.502000000
H    -1.381000000     3.762000000    -0.214000000
O    -2.782000000    -6.245000000    -0.002000000
H    -1.957000000    -5.760000000    -0.043000000
H    -3.437000000    -5.584000000     0.220000000
O     3.020000000    -4.926000000     0.942000000
H     2.956000000    -4.638000000     0.031000000
H     2.342000000    -5.595000000     1.030000000
O    -3.569000000    -1.471000000     6.272000000
H    -2.943000000    -0.903000000     6.720000000
H    -3.450000000    -1.273000000     5.343000000
O    -5.079000000     4.637000000     3.145000000
H    -5.830000000     4.733000000     3.731000000
H    -4.726000000     3.771000000     3.348000000
O    -1.278000000     0.755000000    -8.022000000
H    -0.389000000     0.700000000    -7.672000000
H    -1.525000000    -0.154000000    -8.192000000
O    -1.598000000     6.161000000    -2.221000000
H    -1.680000000     5.713000000    -1.379000000
H    -0.665000000     6.363000000    -2.296000000
O    -0.359000000    -5.174000000    -0.686000000
H    -0.015000000    -4.952000000    -1.551000000
H     0.403000000    -5.486000000    -0.198000000
O    -3.033000000     6.026000000     1.266000000
H    -2.704000000     5.257000000     0.802000000
H    -3.921000000     5.786000000     1.528000000
O     3.088000000    -0.167000000     0.445000000
H     2.136000000    -0.259000000     0.483000000
H     3.278000000     0.591000000     0.997000000
O    -3.179000000    -0.916000000     3.266000000
H    -3.006000000    -0.068000000     3.673000000
H    -3.673000000    -0.705000000     2.474000000
O     3.258000000     3.836000000    -1.485000000
H     3.416000000     4.705000000    -1.856000000
H     2.969000000     3.307000000    -2.229000000
O     0.074000000     5.154000000     0.056000000
H     1.019000000     5.063000000    -0.066000000
H    -0.018000000     5.885000000     0.667000000
O    -1.328000000    -4.789000000     2.772000000
H    -1.391000000    -4.656000000     3.717000000
H    -0.428000000    -4.545000000     2.555000000
O    -2.333000000     2.540000000    -6.411000000
H    -3.227000000     2.714000000    -6.703000000
H    -1.947000000     2.021000000    -7.117000000
O     3.165000000    -1.041000000     4.061000000
H     2.263000000    -1.308000000     4.237000000
H     3.685000000    -1.828000000     4.225000000
O    -2.782000000     1.282000000     4.381000000
H    -2.412000000     2.038000000     3.924000000
H    -3.095000000     1.635000000     5.213000000
O    -3.725000000    -3.513000000     1.966000000
H    -3.656000000    -2.784000000     2.582000000
H    -2.906000000    -3.997000000     2.076000000
O     0.420000000    -4.428000000    -3.453000000
H    -0.102000000    -3.626000000    -3.468000000
H     1.294000000    -4.141000000    -3.189000000
O     1.164000000    -1.336000000     6.695000000
H     0.678000000    -1.321000000     5.870000000
H     0.777000000    -0.630000000     7.213000000
O     3.298000000     2.561000000     1.345000000
H     3.516000000     2.517000000     0.414000000
H     3.124000000     3.488000000     1.507000000
O    -2.658000000    -2.527000000    -2.529000000
H    -2.544000000    -3.465000000    -2.685000000
H    -1.829000000    -2.136000000    -2.805000000
O    -1.280000000    -2.025000000    -8.341000000
H    -2.035000000    -2.603000000    -8.451000000
H    -1.123000000    -2.013000000    -7.397000000
O    -2.069000000     3.421000000     2.870000000
H    -1.463000000     4.162000000     2.881000000
H    -2.276000000     3.295000000     1.943000000
O     1.687000000     3.447000000    -5.179000000
H     2.146000000     3.809000000    -4.421000000
H     0.879000000     3.957000000    -5.237000000
O    -3.572000000    -0.366000000    -5.792000000
H    -4.369000000    -0.355000000    -5.263000000
H    -3.329000000     0.556000000    -5.878000000
O     1.650000000     3.781000000     4.959000000
H     2.170000000     2.978000000     4.909000000
H     1.643000000     4.004000000     5.890000000
O     4.543000000     0.016000000    -1.740000000
H     4.016000000    -0.109000000    -0.951000000
H     3.975000000     0.509000000    -2.332000000
O     1.833000000    -0.543000000    -7.908000000
H     1.855000000    -0.269000000    -8.825000000
H     1.609000000     0.252000000    -7.426000000
O    -0.352000000    -1.812000000     4.487000000
H    -1.170000000    -1.678000000     4.008000000
H     0.221000000    -2.257000000     3.863000000
O    -3.097000000     1.547000000    -1.650000000
H    -4.026000000     1.658000000    -1.853000000
H    -2.662000000     1.560000000    -2.502000000
