158
-3055.10597
C     1.168000000     0.727000000    -0.636000000
H     2.048000000     1.272000000    -0.966000000
C     0.618000000     1.006000000     0.598000000
H     1.009000000     1.726000000     1.313000000
C    -0.472000000     0.279000000     1.067000000
H    -0.964000000     0.515000000     2.061000000
C    -1.101000000    -0.689000000     0.240000000
H    -1.949000000    -1.314000000     0.506000000
C    -0.544000000    -0.981000000    -1.001000000
H    -1.039000000    -1.708000000    -1.640000000
C     0.576000000    -0.229000000    -1.425000000
C     1.271000000    -0.700000000    -2.603000000
O     0.873000000    -1.733000000    -3.187000000
O     2.147000000    -0.062000000    -3.140000000
O    -3.196000000     5.979000000     4.542000000
H    -2.943000000     5.057000000     4.580000000
H    -2.592000000     6.418000000     5.141000000
O    -5.363000000    -3.629000000     3.258000000
H    -5.224000000    -4.164000000     2.477000000
H    -5.256000000    -2.728000000     2.954000000
O     1.045000000     3.955000000    -4.160000000
H     1.827000000     3.422000000    -4.303000000
H     1.197000000     4.383000000    -3.318000000
O     2.159000000     0.037000000    -5.899000000
H     1.731000000     0.861000000    -6.132000000
H     2.096000000    -0.005000000    -4.945000000
O    -0.544000000    -0.350000000     5.420000000
H    -1.440000000    -0.013000000     5.418000000
H    -0.579000000    -1.128000000     4.865000000
O     5.839000000     1.271000000    -4.299000000
H     6.677000000     1.126000000    -4.738000000
H     6.071000000     1.695000000    -3.473000000
O     4.163000000    -1.704000000    -3.257000000
H     3.386000000    -1.147000000    -3.290000000
H     4.280000000    -2.007000000    -4.158000000
O     1.746000000    -2.975000000    -5.298000000
H     1.266000000    -2.495000000    -4.623000000
H     1.938000000    -2.319000000    -5.969000000
O    -1.326000000     5.214000000     1.423000000
H    -0.950000000     4.864000000     0.616000000
H    -0.571000000     5.372000000     1.990000000
O    -4.347000000    -3.970000000    -1.664000000
H    -4.203000000    -3.064000000    -1.937000000
H    -4.063000000    -4.494000000    -2.412000000
O     1.700000000     4.583000000     1.679000000
H     2.621000000     4.613000000     1.420000000
H     1.669000000     3.934000000     2.381000000
O    -3.553000000     3.131000000     1.921000000
H    -4.388000000     3.424000000     1.555000000
H    -2.950000000     3.855000000     1.752000000
O     3.202000000     2.380000000    -4.012000000
H     2.995000000     1.687000000    -3.386000000
H     4.026000000     2.102000000    -4.413000000
O    -2.727000000     3.569000000     5.887000000
H    -1.845000000     3.728000000     6.223000000
H    -3.307000000     3.895000000     6.575000000
O     0.640000000    -2.995000000     6.804000000
H     0.697000000    -3.943000000     6.682000000
H     0.555000000    -2.644000000     5.918000000
O     1.588000000     0.908000000     6.555000000
H     0.827000000     0.526000000     6.119000000
H     1.300000000     1.055000000     7.456000000
O    -1.776000000     1.006000000    -4.821000000
H    -1.345000000     1.096000000    -5.672000000
H    -2.078000000     1.890000000    -4.611000000
O    -1.303000000     2.822000000    -1.398000000
H    -0.775000000     2.134000000    -0.992000000
H    -0.822000000     3.629000000    -1.218000000
O     5.250000000    -0.991000000    -6.241000000
H     5.398000000    -0.214000000    -5.702000000
H     4.406000000    -0.832000000    -6.663000000
O    -3.972000000    -1.568000000    -2.684000000
H    -4.082000000    -0.665000000    -2.388000000
H    -3.066000000    -1.611000000    -2.991000000
O     1.465000000    -3.480000000     1.087000000
H     1.232000000    -2.553000000     1.036000000
H     1.791000000    -3.694000000     0.213000000
O    -5.512000000    -0.753000000     5.451000000
H    -4.712000000    -0.962000000     5.934000000
H    -5.208000000    -0.524000000     4.572000000
O    -5.718000000     0.439000000     0.758000000
H    -5.898000000     1.182000000     1.334000000
H    -6.492000000     0.376000000     0.199000000
O     0.109000000     4.978000000    -0.808000000
H     0.817000000     5.127000000    -0.181000000
H    -0.061000000     5.840000000    -1.186000000
O    -1.056000000    -4.979000000    -0.788000000
H    -0.416000000    -4.692000000    -1.439000000
H    -1.008000000    -4.318000000    -0.097000000
O     4.123000000     1.515000000     1.850000000
H     5.033000000     1.442000000     2.140000000
H     3.677000000     0.782000000     2.274000000
O    -2.325000000    -2.882000000     2.789000000
H    -2.835000000    -2.076000000     2.712000000
H    -2.924000000    -3.506000000     3.200000000
O     4.089000000     4.120000000     0.892000000
H     4.031000000     3.180000000     1.066000000
H     4.395000000     4.178000000    -0.013000000
O     4.186000000     4.683000000    -1.628000000
H     4.937000000     4.970000000    -2.148000000
H     3.751000000     4.030000000    -2.176000000
O     2.162000000    -0.600000000     3.754000000
H     1.618000000    -1.354000000     3.526000000
H     1.548000000     0.034000000     4.126000000
O     4.993000000    -1.324000000     4.491000000
H     5.145000000    -2.007000000     3.838000000
H     4.091000000    -1.044000000     4.339000000
O    -4.389000000    -0.735000000     2.846000000
H    -4.519000000    -0.274000000     2.017000000
H    -3.927000000    -0.105000000     3.400000000
O    -4.374000000    -4.931000000     1.081000000
H    -4.055000000    -4.585000000     0.247000000
H    -3.582000000    -5.184000000     1.555000000
O     0.298000000    -2.801000000     3.829000000
H     0.688000000    -3.044000000     2.990000000
H    -0.632000000    -3.003000000     3.728000000
O     1.622000000    -5.475000000    -6.001000000
H     1.745000000    -4.607000000    -5.616000000
H     2.507000000    -5.766000000    -6.221000000
O     3.634000000    -3.731000000    -1.289000000
H     3.915000000    -3.088000000    -1.939000000
H     2.796000000    -4.056000000    -1.620000000
O    -6.769000000    -2.122000000     1.075000000
H    -6.896000000    -1.989000000     0.136000000
H    -6.156000000    -1.434000000     1.334000000
O    -2.748000000    -3.990000000    -4.616000000
H    -2.148000000    -4.412000000    -5.231000000
H    -2.506000000    -3.064000000    -4.642000000
O    -6.674000000    -1.772000000    -1.995000000
H    -7.025000000    -1.457000000    -2.827000000
H    -5.727000000    -1.804000000    -2.130000000
O     7.221000000     2.251000000    -1.881000000
H     6.565000000     1.622000000    -1.579000000
H     7.174000000     2.967000000    -1.248000000
O    -3.427000000     1.502000000     4.087000000
H    -3.155000000     2.065000000     4.811000000
H    -3.397000000     2.070000000     3.317000000
O     0.853000000     2.549000000    -6.666000000
H     0.674000000     3.185000000    -5.974000000
H    -0.001000000     2.387000000    -7.068000000
O     1.096000000     2.922000000     4.099000000
H     1.452000000     3.588000000     4.687000000
H     0.201000000     2.782000000     4.408000000
O     5.362000000     0.333000000    -1.495000000
H     4.880000000    -0.053000000    -2.226000000
H     5.051000000    -0.143000000    -0.725000000
O     1.989000000    -1.624000000    -7.856000000
H     2.643000000    -1.437000000    -8.530000000
H     1.958000000    -0.829000000    -7.324000000
O    -1.642000000    -1.616000000    -4.172000000
H    -0.767000000    -1.754000000    -3.809000000
H    -1.683000000    -0.675000000    -4.345000000
O    -3.986000000     1.003000000    -1.426000000
H    -4.584000000     0.989000000    -0.679000000
H    -3.263000000     1.563000000    -1.143000000
O     1.232000000    -4.251000000    -2.515000000
H     1.503000000    -4.809000000    -3.244000000
H     1.142000000    -3.380000000    -2.901000000
