158
-3051.92486
C     0.619000000     1.106000000    -0.757000000
H     1.062000000     2.003000000    -1.181000000
C     0.614000000     1.072000000     0.675000000
H     0.808000000     1.920000000     1.327000000
C    -0.110000000    -0.028000000     1.251000000
H    -0.282000000    -0.120000000     2.287000000
C    -0.459000000    -1.128000000     0.438000000
H    -0.804000000    -2.022000000     0.951000000
C    -0.165000000    -1.167000000    -0.893000000
H    -0.548000000    -2.021000000    -1.447000000
C     0.293000000    -0.017000000    -1.592000000
C     0.432000000     0.158000000    -3.089000000
O    -0.176000000    -0.577000000    -3.868000000
O     1.326000000     0.859000000    -3.515000000
O    -3.495000000    -4.240000000    -0.017000000
H    -3.313000000    -3.307000000    -0.131000000
H    -4.159000000    -4.272000000     0.673000000
O     1.481000000     3.551000000    -3.809000000
H     1.668000000     3.645000000    -4.743000000
H     1.711000000     2.643000000    -3.610000000
O    -0.771000000     2.380000000     4.399000000
H    -1.473000000     2.481000000     5.042000000
H    -1.094000000     2.832000000     3.620000000
O    -4.111000000    -0.306000000     6.259000000
H    -4.662000000    -1.054000000     6.491000000
H    -3.517000000    -0.646000000     5.590000000
O    -1.263000000    -1.470000000    -6.153000000
H    -0.844000000    -1.075000000    -5.389000000
H    -0.580000000    -1.481000000    -6.823000000
O     2.207000000    -4.010000000    -2.504000000
H     2.282000000    -3.403000000    -3.239000000
H     2.281000000    -3.456000000    -1.727000000
O     3.732000000     4.644000000    -1.206000000
H     4.325000000     3.899000000    -1.299000000
H     3.799000000     5.109000000    -2.040000000
O    -4.771000000     1.855000000     4.607000000
H    -4.551000000     1.209000000     5.278000000
H    -5.047000000     1.333000000     3.853000000
O     2.527000000     1.252000000    -6.335000000
H     2.204000000     0.569000000    -6.922000000
H     2.121000000     1.054000000    -5.491000000
O    -2.629000000    -1.703000000     4.077000000
H    -2.796000000    -1.612000000     3.139000000
H    -1.780000000    -2.143000000     4.128000000
O    -3.311000000     3.925000000     2.922000000
H    -3.664000000     3.142000000     3.343000000
H    -2.954000000     4.444000000     3.642000000
O     3.858000000    -1.861000000     4.593000000
H     3.315000000    -1.800000000     5.379000000
H     3.319000000    -2.344000000     3.966000000
O    -1.830000000     1.677000000    -6.444000000
H    -1.264000000     1.607000000    -7.213000000
H    -1.275000000     1.405000000    -5.713000000
O     2.001000000     6.550000000    -0.253000000
H     2.466000000     7.360000000    -0.044000000
H     2.668000000     5.984000000    -0.642000000
O     2.196000000    -3.774000000     2.899000000
H     2.543000000    -3.727000000     2.008000000
H     1.773000000    -4.631000000     2.947000000
O     1.816000000     2.331000000     4.119000000
H     0.861000000     2.261000000     4.142000000
H     2.022000000     2.506000000     3.201000000
O     0.524000000     5.205000000     1.385000000
H     1.147000000     4.480000000     1.441000000
H     0.964000000     5.857000000     0.841000000
O    -3.684000000     1.662000000    -0.654000000
H    -3.562000000     1.999000000    -1.541000000
H    -3.633000000     0.711000000    -0.750000000
O     5.114000000    -0.120000000    -6.247000000
H     4.331000000     0.429000000    -6.275000000
H     4.860000000    -0.873000000    -5.713000000
O     5.648000000    -1.557000000    -2.548000000
H     5.406000000    -0.631000000    -2.579000000
H     5.160000000    -1.957000000    -3.268000000
O     3.080000000    -0.756000000     0.017000000
H     3.566000000    -0.304000000     0.706000000
H     2.160000000    -0.607000000     0.235000000
O     3.749000000     0.624000000    -2.329000000
H     2.975000000     0.722000000    -2.885000000
H     3.468000000     0.035000000    -1.629000000
O     0.003000000    -2.944000000     4.266000000
H     0.405000000    -2.087000000     4.408000000
H     0.696000000    -3.470000000     3.867000000
O     4.030000000    -2.351000000    -4.959000000
H     4.217000000    -3.234000000    -5.277000000
H     3.124000000    -2.393000000    -4.655000000
O     1.407000000    -0.562000000     4.600000000
H     1.202000000    -0.292000000     5.495000000
H     1.740000000     0.232000000     4.181000000
O     4.323000000    -0.173000000     2.399000000
H     4.120000000    -0.836000000     3.058000000
H     5.211000000     0.114000000     2.612000000
O     0.875000000    -3.681000000     7.205000000
H     0.636000000    -2.782000000     6.979000000
H     0.167000000    -4.214000000     6.842000000
O    -2.297000000     3.099000000     6.569000000
H    -2.183000000     3.006000000     7.515000000
H    -3.210000000     3.368000000     6.463000000
O     1.495000000     2.251000000     7.517000000
H     1.428000000     2.877000000     6.796000000
H     1.063000000     2.686000000     8.253000000
O     5.686000000     2.340000000    -1.572000000
H     6.219000000     1.890000000    -0.917000000
H     4.948000000     1.749000000    -1.726000000
O     1.552000000    -1.190000000    -7.603000000
H     2.053000000    -1.121000000    -8.415000000
H     1.822000000    -2.026000000    -7.225000000
O     3.438000000    -3.347000000     0.175000000
H     4.353000000    -3.573000000     0.342000000
H     3.402000000    -2.397000000     0.282000000
O    -5.900000000     0.694000000     2.406000000
H    -6.370000000     0.051000000     2.938000000
H    -6.483000000     0.864000000     1.666000000
O    -3.608000000    -1.216000000     1.640000000
H    -3.551000000    -1.313000000     0.689000000
H    -4.331000000    -0.603000000     1.775000000
O    -1.105000000    -5.456000000     0.475000000
H    -1.924000000    -5.062000000     0.173000000
H    -0.594000000    -5.586000000    -0.324000000
O     1.354000000    -2.502000000    -4.663000000
H     0.796000000    -3.101000000    -5.159000000
H     0.744000000    -1.876000000    -4.273000000
O     3.801000000     4.057000000     5.150000000
H     2.958000000     3.877000000     4.733000000
H     4.098000000     4.873000000     4.746000000
O    -1.005000000     4.492000000    -2.662000000
H    -0.245000000     4.080000000    -3.074000000
H    -0.995000000     4.166000000    -1.762000000
O     3.043000000     5.903000000    -4.114000000
H     2.392000000     5.301000000    -3.755000000
H     3.480000000     5.401000000    -4.802000000
O    -3.512000000    -4.631000000     3.932000000
H    -3.117000000    -3.770000000     4.075000000
H    -4.418000000    -4.530000000     4.225000000
O    -3.573000000    -1.086000000    -1.142000000
H    -4.499000000    -0.912000000    -1.314000000
H    -3.147000000    -0.977000000    -1.992000000
O    -2.716000000    -1.283000000    -3.688000000
H    -1.835000000    -0.910000000    -3.714000000
H    -3.172000000    -0.871000000    -4.422000000
O    -2.704000000    -3.880000000    -3.780000000
H    -3.548000000    -4.175000000    -3.436000000
H    -2.796000000    -2.931000000    -3.859000000
O    -1.360000000     3.910000000    -0.230000000
H    -0.660000000     4.167000000     0.370000000
H    -1.853000000     3.243000000     0.249000000
O     2.880000000     3.901000000    -6.635000000
H     3.389000000     4.199000000    -7.389000000
H     2.898000000     2.946000000    -6.696000000
O     1.011000000    -0.284000000     7.444000000
H     0.159000000    -0.372000000     7.872000000
H     1.077000000     0.647000000     7.232000000
O     3.017000000     3.717000000     1.150000000
H     3.781000000     3.802000000     1.719000000
H     3.235000000     4.235000000     0.375000000
O    -0.219000000    -5.557000000    -2.113000000
H     0.460000000    -4.914000000    -2.317000000
H    -0.984000000    -5.263000000    -2.607000000
