158
-3040.51936
C    -0.956000000     0.939000000    -0.513000000
H    -1.732000000     1.688000000    -0.648000000
C     0.069000000     1.182000000     0.426000000
H     0.157000000     2.189000000     0.825000000
C     0.863000000     0.196000000     0.848000000
H     1.669000000     0.536000000     1.595000000
C     0.723000000    -1.080000000     0.312000000
H     1.288000000    -1.910000000     0.729000000
C    -0.229000000    -1.302000000    -0.715000000
H    -0.391000000    -2.299000000    -1.116000000
C    -1.019000000    -0.306000000    -1.152000000
C    -2.130000000    -0.549000000    -2.104000000
O    -2.309000000    -1.683000000    -2.509000000
O    -2.784000000     0.354000000    -2.585000000
O    -5.349000000     1.365000000     1.916000000
H    -4.726000000     2.091000000     1.899000000
H    -5.655000000     1.333000000     2.823000000
O    -0.884000000     1.564000000    -4.233000000
H    -0.188000000     0.939000000    -4.034000000
H    -1.670000000     1.179000000    -3.846000000
O     6.080000000     1.474000000     1.403000000
H     5.611000000     1.652000000     0.588000000
H     6.491000000     2.309000000     1.630000000
O    -2.048000000    -4.433000000    -3.139000000
H    -1.465000000    -4.723000000    -2.437000000
H    -2.338000000    -3.563000000    -2.866000000
O    -7.500000000    -0.949000000    -1.572000000
H    -6.769000000    -1.412000000    -1.983000000
H    -7.746000000    -1.500000000    -0.830000000
O    -6.044000000    -4.634000000    -4.161000000
H    -5.652000000    -3.838000000    -4.520000000
H    -5.642000000    -5.345000000    -4.660000000
O     2.788000000    -4.605000000    -1.318000000
H     3.222000000    -5.449000000    -1.200000000
H     3.112000000    -4.065000000    -0.597000000
O    -5.131000000    -1.343000000     1.156000000
H    -5.600000000    -0.548000000     1.411000000
H    -5.801000000    -1.900000000     0.761000000
O    -2.010000000    -5.931000000    -5.400000000
H    -1.307000000    -6.553000000    -5.210000000
H    -2.027000000    -5.350000000    -4.639000000
O    -0.108000000     5.364000000    -3.655000000
H     0.486000000     5.406000000    -2.905000000
H    -0.935000000     5.052000000    -3.288000000
O    -5.167000000    -2.042000000    -5.361000000
H    -5.509000000    -2.214000000    -6.239000000
H    -4.542000000    -1.328000000    -5.484000000
O    -1.278000000    -1.881000000    -5.578000000
H    -1.541000000    -2.015000000    -4.667000000
H    -1.567000000    -2.674000000    -6.030000000
O    -1.765000000     1.167000000     4.170000000
H    -1.861000000     0.433000000     3.562000000
H    -2.366000000     0.964000000     4.887000000
O    -3.453000000     3.579000000     2.306000000
H    -2.532000000     3.336000000     2.406000000
H    -3.503000000     3.977000000     1.437000000
O    -0.601000000     4.680000000     0.123000000
H    -1.511000000     4.708000000    -0.173000000
H    -0.656000000     4.403000000     1.038000000
O     1.633000000    -6.555000000     1.614000000
H     2.226000000    -6.334000000     0.896000000
H     1.056000000    -7.227000000     1.251000000
O    -3.344000000     4.689000000    -0.507000000
H    -3.561000000     4.277000000    -1.343000000
H    -3.892000000     5.473000000    -0.477000000
O    -0.815000000     2.996000000     6.127000000
H    -1.176000000     2.294000000     5.585000000
H    -0.723000000     2.604000000     6.996000000
O     0.589000000     6.897000000     0.058000000
H     0.315000000     5.981000000     0.028000000
H    -0.049000000     7.319000000     0.633000000
O     1.789000000     1.270000000     6.301000000
H     1.931000000     2.194000000     6.506000000
H     1.044000000     1.016000000     6.846000000
O    -5.132000000     2.909000000    -4.375000000
H    -4.435000000     3.559000000    -4.465000000
H    -5.095000000     2.645000000    -3.455000000
O     2.207000000     1.196000000    -1.719000000
H     1.670000000     0.684000000    -1.114000000
H     1.840000000     1.008000000    -2.583000000
O     4.680000000     2.213000000    -0.812000000
H     5.324000000     2.172000000    -1.520000000
H     3.848000000     1.998000000    -1.233000000
O     3.355000000    -3.024000000     3.423000000
H     4.134000000    -2.510000000     3.635000000
H     2.621000000    -2.463000000     3.675000000
O     3.754000000     1.669000000     4.203000000
H     4.442000000     1.024000000     4.037000000
H     3.331000000     1.366000000     5.007000000
O    -1.636000000    -1.930000000     4.959000000
H    -1.257000000    -2.702000000     4.539000000
H    -2.066000000    -1.456000000     4.247000000
O     2.384000000    -2.703000000    -3.450000000
H     2.879000000    -3.200000000    -4.102000000
H     2.386000000    -3.261000000    -2.673000000
O    -2.653000000    -0.845000000     2.679000000
H    -3.568000000    -0.911000000     2.407000000
H    -2.153000000    -1.093000000     1.901000000
O    -0.840000000     3.690000000     2.716000000
H    -0.037000000     4.042000000     3.102000000
H    -0.958000000     2.842000000     3.143000000
O     3.860000000    -0.778000000     0.052000000
H     4.447000000    -0.457000000     0.736000000
H     3.437000000     0.010000000    -0.290000000
O     4.094000000    -3.806000000     0.888000000
H     4.858000000    -3.245000000     1.025000000
H     3.515000000    -3.604000000     1.622000000
O     0.045000000    -5.042000000    -1.472000000
H     1.001000000    -5.016000000    -1.523000000
H    -0.147000000    -4.979000000    -0.537000000
O    -3.675000000    -0.173000000    -7.705000000
H    -3.044000000    -0.836000000    -7.986000000
H    -3.463000000    -0.015000000    -6.785000000
O     1.104000000    -0.496000000    -4.239000000
H     1.610000000    -1.158000000    -3.768000000
H     0.690000000    -0.977000000    -4.956000000
O     1.429000000     3.795000000    -1.654000000
H     1.657000000     2.876000000    -1.516000000
H     0.748000000     3.974000000    -1.005000000
O    -1.238000000    -5.129000000     1.015000000
H    -0.980000000    -4.724000000     1.843000000
H    -1.856000000    -4.508000000     0.627000000
O    -5.174000000    -1.854000000    -2.682000000
H    -5.413000000    -2.079000000    -3.581000000
H    -4.227000000    -1.718000000    -2.712000000
O    -3.820000000     0.402000000    -4.899000000
H    -3.397000000     0.300000000    -4.047000000
H    -4.393000000     1.161000000    -4.793000000
O     1.531000000     4.551000000     3.536000000
H     1.735000000     5.483000000     3.613000000
H     2.376000000     4.135000000     3.362000000
O    -3.527000000    -3.002000000    -0.568000000
H    -4.066000000    -2.479000000     0.024000000
H    -3.428000000    -2.456000000    -1.348000000
O    -5.008000000     1.704000000    -2.041000000
H    -4.257000000     1.126000000    -2.176000000
H    -5.673000000     1.143000000    -1.643000000
O    -0.748000000    -4.039000000     3.747000000
H    -1.358000000    -4.701000000     4.072000000
H     0.113000000    -4.344000000     4.036000000
O    -4.306000000    -6.005000000    -0.712000000
H    -3.505000000    -5.482000000    -0.739000000
H    -4.642000000    -5.975000000    -1.608000000
O     4.114000000     4.797000000    -1.839000000
H     4.622000000     3.999000000    -1.689000000
H     3.214000000     4.550000000    -1.627000000
O     4.144000000     3.887000000     2.533000000
H     4.972000000     3.928000000     2.053000000
H     3.947000000     2.952000000     2.592000000
O     1.737000000    -1.055000000     4.915000000
H     1.873000000    -0.193000000     5.308000000
H     0.824000000    -1.047000000     4.629000000
O    -1.204000000     2.488000000    -7.141000000
H    -1.651000000     2.090000000    -6.394000000
H    -0.633000000     3.151000000    -6.752000000
O     0.138000000    -6.987000000    -3.477000000
H    -0.353000000    -7.648000000    -2.989000000
H    -0.023000000    -6.170000000    -3.004000000
