158
-3023.50837
C    -1.082000000     0.623000000    -0.810000000
H    -1.950000000     1.086000000    -1.272000000
C    -0.658000000     0.999000000     0.401000000
H    -1.118000000     1.794000000     0.983000000
C     0.425000000     0.434000000     1.057000000
H     0.788000000     0.822000000     2.078000000
C     1.079000000    -0.668000000     0.471000000
H     1.923000000    -1.198000000     0.905000000
C     0.669000000    -1.016000000    -0.778000000
H     1.091000000    -1.848000000    -1.336000000
C    -0.413000000    -0.430000000    -1.460000000
C    -1.048000000    -1.023000000    -2.709000000
O    -0.532000000    -2.049000000    -3.158000000
O    -1.974000000    -0.452000000    -3.261000000
O    -1.720000000     0.557000000    -5.805000000
H    -2.424000000     0.084000000    -6.249000000
H    -1.794000000     0.292000000    -4.888000000
O    -2.987000000     1.454000000     5.410000000
H    -3.710000000     1.025000000     5.867000000
H    -2.538000000     1.957000000     6.090000000
O     0.175000000    -4.343000000    -2.117000000
H     0.204000000    -4.086000000    -1.195000000
H     0.077000000    -3.518000000    -2.592000000
O    -7.356000000    -1.930000000    -2.384000000
H    -7.628000000    -2.281000000    -3.231000000
H    -6.415000000    -1.780000000    -2.477000000
O    -4.066000000    -4.597000000    -3.474000000
H    -3.359000000    -4.373000000    -4.080000000
H    -4.615000000    -5.211000000    -3.962000000
O     3.262000000    -5.710000000     0.030000000
H     3.730000000    -5.823000000    -0.797000000
H     3.559000000    -4.862000000     0.360000000
O    -5.193000000    -1.579000000     1.518000000
H    -5.568000000    -0.785000000     1.899000000
H    -4.326000000    -1.312000000     1.214000000
O     0.484000000    -7.193000000    -2.745000000
H     1.385000000    -7.205000000    -3.070000000
H     0.289000000    -6.265000000    -2.616000000
O     1.648000000     3.620000000    -2.968000000
H     2.242000000     2.939000000    -2.652000000
H     1.056000000     3.781000000    -2.233000000
O     3.205000000     1.108000000    -3.846000000
H     3.932000000     0.972000000    -4.453000000
H     2.478000000     1.390000000    -4.401000000
O    -5.003000000     2.931000000     3.869000000
H    -4.636000000     3.619000000     3.313000000
H    -4.243000000     2.544000000     4.304000000
O    -2.144000000    -3.196000000    -5.200000000
H    -1.696000000    -2.683000000    -4.528000000
H    -1.557000000    -3.933000000    -5.369000000
O     0.014000000     0.707000000     4.711000000
H     0.029000000     0.403000000     5.618000000
H    -0.893000000     0.584000000     4.432000000
O    -3.521000000     4.412000000     2.122000000
H    -3.525000000     5.306000000     1.781000000
H    -3.776000000     3.869000000     1.376000000
O    -0.736000000     4.037000000    -1.242000000
H    -1.055000000     4.940000000    -1.246000000
H    -1.495000000     3.517000000    -0.979000000
O    -3.658000000     2.864000000    -0.150000000
H    -3.931000000     1.948000000    -0.215000000
H    -4.360000000     3.354000000    -0.578000000
O     1.657000000    -4.620000000    -6.879000000
H     1.801000000    -4.009000000    -6.156000000
H     0.754000000    -4.918000000    -6.764000000
O     1.667000000     2.691000000     5.779000000
H     1.194000000     3.481000000     5.518000000
H     1.152000000     1.972000000     5.413000000
O     0.788000000     6.292000000     0.418000000
H     0.983000000     5.388000000     0.664000000
H    -0.033000000     6.234000000    -0.072000000
O     2.411000000    -2.248000000     5.683000000
H     2.888000000    -1.435000000     5.519000000
H     1.641000000    -1.977000000     6.183000000
O    -4.377000000     1.085000000    -4.037000000
H    -4.323000000     2.019000000    -4.239000000
H    -3.473000000     0.827000000    -3.854000000
O     3.343000000     0.368000000    -1.158000000
H     2.510000000     0.217000000    -0.712000000
H     3.098000000     0.588000000    -2.057000000
O     4.811000000    -0.408000000     1.034000000
H     5.724000000    -0.445000000     0.750000000
H     4.321000000    -0.189000000     0.241000000
O     4.225000000    -3.121000000     2.385000000
H     3.468000000    -2.722000000     2.814000000
H     4.354000000    -2.601000000     1.593000000
O     0.877000000     1.698000000    -5.640000000
H     0.036000000     1.317000000    -5.388000000
H     0.802000000     2.623000000    -5.403000000
O     3.733000000    -0.073000000     4.790000000
H     4.656000000    -0.166000000     4.552000000
H     3.743000000     0.478000000     5.574000000
O    -2.157000000    -2.889000000     4.148000000
H    -2.168000000    -3.324000000     3.295000000
H    -1.990000000    -1.969000000     3.945000000
O    -1.862000000    -0.507000000     2.840000000
H    -1.688000000     0.257000000     2.290000000
H    -2.014000000    -1.220000000     2.220000000
O     5.273000000     4.167000000     1.508000000
H     5.103000000     3.392000000     2.044000000
H     4.780000000     4.014000000     0.703000000
O     0.986000000     4.875000000     3.466000000
H     1.017000000     4.315000000     2.691000000
H     0.377000000     5.575000000     3.231000000
O     5.444000000    -3.129000000    -0.506000000
H     5.717000000    -3.166000000    -1.423000000
H     5.696000000    -2.252000000    -0.216000000
O    -0.199000000    -3.777000000     0.574000000
H     0.126000000    -3.308000000     1.344000000
H    -0.789000000    -4.441000000     0.930000000
O    -0.828000000    -2.178000000    -8.324000000
H     0.048000000    -1.825000000    -8.169000000
H    -1.170000000    -2.363000000    -7.449000000
O     1.748000000    -3.431000000    -4.519000000
H     1.522000000    -4.157000000    -3.937000000
H     1.128000000    -2.739000000    -4.290000000
O     4.029000000     2.951000000    -0.765000000
H     4.774000000     2.906000000    -1.365000000
H     3.682000000     2.059000000    -0.746000000
O     1.591000000    -5.810000000     2.503000000
H     1.451000000    -4.929000000     2.850000000
H     2.251000000    -5.697000000     1.819000000
O    -4.720000000    -2.168000000    -2.300000000
H    -4.682000000    -3.070000000    -2.615000000
H    -4.096000000    -1.695000000    -2.850000000
O    -3.552000000    -1.110000000    -6.931000000
H    -3.148000000    -1.820000000    -6.433000000
H    -4.000000000    -1.550000000    -7.654000000
O     1.743000000     3.719000000     0.732000000
H     2.573000000     3.594000000     0.272000000
H     1.190000000     3.000000000     0.427000000
O     4.417000000    -2.952000000    -5.246000000
H     4.686000000    -2.601000000    -4.397000000
H     3.467000000    -3.043000000    -5.178000000
O    -2.400000000    -2.349000000     1.072000000
H    -1.587000000    -2.663000000     0.676000000
H    -3.031000000    -3.049000000     0.909000000
O    -4.590000000     0.295000000    -1.221000000
H    -4.698000000     0.652000000    -2.102000000
H    -4.301000000    -0.607000000    -1.362000000
O    -2.346000000    -5.643000000    -1.759000000
H    -1.635000000    -5.065000000    -2.037000000
H    -3.124000000    -5.290000000    -2.191000000
O    -0.117000000    -0.328000000     7.138000000
H    -0.629000000    -1.130000000     7.239000000
H    -0.361000000     0.209000000     7.891000000
O    -0.643000000    -5.648000000    -5.449000000
H    -1.213000000    -6.190000000    -5.994000000
H     0.090000000    -6.221000000    -5.225000000
O     4.003000000     1.745000000     2.315000000
H     4.390000000     1.117000000     1.704000000
H     3.531000000     1.203000000     2.947000000
O     1.028000000    -2.960000000     3.090000000
H     0.497000000    -3.424000000     3.737000000
H     1.428000000    -2.241000000     3.579000000
O    -2.350000000     2.929000000    -7.430000000
H    -2.071000000     2.337000000    -6.731000000
H    -3.215000000     3.234000000    -7.155000000
