158
-3025.77589
C    -1.275000000     0.144000000    -0.745000000
H    -2.243000000     0.323000000    -1.206000000
C    -1.162000000    -0.048000000     0.628000000
H    -2.069000000     0.114000000     1.204000000
C     0.084000000    -0.165000000     1.156000000
H     0.164000000    -0.180000000     2.227000000
C     1.246000000    -0.226000000     0.418000000
H     2.221000000    -0.311000000     0.889000000
C     1.166000000    -0.215000000    -0.951000000
H     2.074000000    -0.468000000    -1.493000000
C    -0.107000000    -0.052000000    -1.583000000
C    -0.256000000     0.164000000    -3.077000000
O     0.748000000     0.354000000    -3.781000000
O    -1.400000000     0.214000000    -3.571000000
O     4.385000000    -1.534000000    -4.432000000
H     3.996000000    -2.132000000    -5.070000000
H     4.497000000    -2.065000000    -3.643000000
O    -4.580000000     1.197000000     2.278000000
H    -5.400000000     1.060000000     2.753000000
H    -4.152000000     1.917000000     2.742000000
O     0.395000000    -2.167000000    -5.270000000
H    -0.130000000    -2.655000000    -4.636000000
H     0.437000000    -1.280000000    -4.913000000
O     6.349000000    -0.916000000     2.737000000
H     6.785000000    -0.070000000     2.628000000
H     5.702000000    -0.764000000     3.425000000
O    -1.465000000     4.755000000     4.584000000
H    -1.477000000     5.140000000     5.461000000
H    -1.890000000     5.409000000     4.030000000
O     1.409000000    -3.390000000    -0.608000000
H     2.192000000    -3.027000000    -0.194000000
H     1.697000000    -3.645000000    -1.484000000
O    -1.059000000     4.143000000    -4.142000000
H    -0.756000000     4.977000000    -3.783000000
H    -1.663000000     3.804000000    -3.481000000
O    -5.556000000     4.232000000    -0.550000000
H    -6.071000000     3.456000000    -0.773000000
H    -4.647000000     3.959000000    -0.671000000
O    -3.755000000    -1.047000000     3.960000000
H    -3.482000000    -0.241000000     3.522000000
H    -4.150000000    -1.575000000     3.265000000
O     5.061000000    -0.461000000     5.235000000
H     4.579000000    -1.271000000     5.402000000
H     4.946000000     0.056000000     6.032000000
O     0.397000000    -2.731000000     6.865000000
H     0.682000000    -3.421000000     7.464000000
H    -0.164000000    -2.167000000     7.397000000
O     3.268000000     0.987000000    -3.475000000
H     3.687000000     0.409000000    -4.112000000
H     2.330000000     0.858000000    -3.615000000
O    -3.662000000     3.124000000     4.158000000
H    -2.938000000     3.748000000     4.196000000
H    -4.250000000     3.395000000     4.862000000
O    -2.556000000     0.638000000    -6.035000000
H    -1.743000000     0.610000000    -6.539000000
H    -2.274000000     0.587000000    -5.122000000
O    -0.088000000     2.461000000     4.054000000
H    -0.118000000     1.814000000     4.759000000
H    -0.753000000     3.107000000     4.293000000
O    -3.293000000     4.717000000    -1.964000000
H    -3.841000000     5.295000000    -2.495000000
H    -3.344000000     3.868000000    -2.404000000
O    -5.800000000     1.704000000    -2.711000000
H    -5.715000000     1.214000000    -3.529000000
H    -5.790000000     1.033000000    -2.028000000
O     2.078000000    -4.320000000    -3.478000000
H     2.017000000    -5.266000000    -3.350000000
H     2.205000000    -4.213000000    -4.420000000
O     1.767000000     4.923000000     0.320000000
H     1.250000000     4.322000000     0.856000000
H     1.735000000     4.548000000    -0.560000000
O     2.618000000    -0.919000000     6.131000000
H     1.934000000    -1.403000000     6.594000000
H     2.594000000    -0.043000000     6.517000000
O    -3.163000000     2.279000000    -3.489000000
H    -3.934000000     1.788000000    -3.208000000
H    -2.448000000     1.643000000    -3.455000000
O     2.049000000     3.179000000    -1.725000000
H     1.780000000     2.272000000    -1.580000000
H     2.971000000     3.200000000    -1.471000000
O     2.191000000     3.841000000    -5.928000000
H     2.164000000     4.312000000    -6.761000000
H     1.462000000     3.224000000    -5.977000000
O     4.586000000     0.505000000     0.483000000
H     3.975000000     0.825000000     1.147000000
H     5.430000000     0.465000000     0.934000000
O     4.500000000    -2.645000000     0.427000000
H     4.470000000    -1.915000000    -0.192000000
H     4.509000000    -2.228000000     1.289000000
O     0.094000000     2.101000000    -8.487000000
H     0.190000000     1.988000000    -7.541000000
H     0.974000000     1.961000000    -8.835000000
O     3.337000000     0.364000000     3.209000000
H     3.221000000    -0.544000000     2.931000000
H     3.463000000     0.311000000     4.156000000
O    -1.937000000    -5.181000000     3.660000000
H    -2.494000000    -4.853000000     2.954000000
H    -1.380000000    -4.437000000     3.891000000
O    -0.939000000    -0.996000000     4.751000000
H    -1.843000000    -1.243000000     4.555000000
H    -0.421000000    -1.756000000     4.485000000
O    -3.634000000     0.495000000     6.443000000
H    -2.737000000     0.827000000     6.469000000
H    -3.751000000     0.191000000     5.543000000
O    -5.730000000     0.117000000    -4.908000000
H    -5.044000000     0.006000000    -5.566000000
H    -6.379000000    -0.553000000    -5.122000000
O    -0.915000000    -3.591000000     0.662000000
H    -0.077000000    -3.528000000     0.203000000
H    -0.859000000    -2.933000000     1.355000000
O    -0.089000000    -1.420000000    -8.065000000
H     0.821000000    -1.155000000    -8.198000000
H    -0.169000000    -1.538000000    -7.119000000
O     5.253000000     2.049000000    -1.810000000
H     4.739000000     1.820000000    -2.584000000
H     5.145000000     1.302000000    -1.221000000
O    -2.719000000    -2.362000000    -2.307000000
H    -2.114000000    -3.013000000    -2.663000000
H    -2.352000000    -1.520000000    -2.577000000
O    -4.203000000    -2.431000000    -6.280000000
H    -3.686000000    -2.367000000    -5.477000000
H    -4.364000000    -3.369000000    -6.387000000
O    -0.084000000     2.914000000     1.298000000
H    -0.020000000     2.569000000     2.188000000
H    -0.292000000     2.150000000     0.759000000
O    -4.676000000     3.356000000    -6.008000000
H    -3.891000000     3.867000000    -6.206000000
H    -4.384000000     2.707000000    -5.368000000
O     3.049000000    -3.452000000    -6.044000000
H     3.138000000    -3.586000000    -6.987000000
H     2.130000000    -3.214000000    -5.921000000
O    -4.056000000    -2.299000000     1.626000000
H    -3.873000000    -3.055000000     1.068000000
H    -3.911000000    -1.542000000     1.059000000
O    -5.314000000     0.119000000    -0.402000000
H    -5.014000000     0.630000000     0.350000000
H    -6.223000000    -0.100000000    -0.195000000
O    -0.008000000    -3.467000000     4.331000000
H     0.077000000    -3.300000000     5.270000000
H     0.849000000    -3.801000000     4.068000000
O    -5.381000000    -2.562000000    -1.208000000
H    -5.548000000    -1.692000000    -0.844000000
H    -4.483000000    -2.516000000    -1.536000000
O    -0.737000000    -4.027000000    -3.233000000
H    -0.200000000    -4.477000000    -2.581000000
H    -0.656000000    -4.564000000    -4.022000000
O    -0.773000000     1.075000000     6.600000000
H    -0.778000000     0.341000000     5.986000000
H    -0.525000000     0.685000000     7.438000000
O     2.594000000     2.812000000     3.346000000
H     1.644000000     2.800000000     3.465000000
H     2.840000000     1.890000000     3.282000000
O     3.570000000    -2.571000000     3.041000000
H     3.419000000    -3.502000000     2.877000000
H     4.086000000    -2.551000000     3.847000000
O    -0.014000000     1.962000000    -5.683000000
H     0.395000000     1.400000000    -5.025000000
H    -0.569000000     2.557000000    -5.179000000
