158
-3052.16996
C    -0.692000000     0.478000000    -1.241000000
H    -1.167000000     0.667000000    -2.200000000
C    -0.757000000    -0.801000000    -0.707000000
H    -1.239000000    -1.602000000    -1.262000000
C    -0.144000000    -1.135000000     0.474000000
H    -0.081000000    -2.190000000     0.882000000
C     0.683000000    -0.218000000     1.075000000
H     1.156000000    -0.420000000     2.033000000
C     0.756000000     1.076000000     0.608000000
H     1.447000000     1.809000000     1.017000000
C     0.135000000     1.417000000    -0.595000000
C     0.225000000     2.867000000    -1.108000000
O     1.194000000     3.542000000    -0.836000000
O    -0.729000000     3.408000000    -1.701000000
O     2.759000000     6.261000000    -3.791000000
H     3.601000000     5.807000000    -3.760000000
H     2.604000000     6.541000000    -2.889000000
O     4.686000000     1.120000000     0.616000000
H     4.098000000     0.605000000     0.063000000
H     4.337000000     1.014000000     1.501000000
O    -1.198000000    -0.745000000    -5.875000000
H    -1.327000000    -0.919000000    -6.808000000
H    -0.486000000    -0.106000000    -5.847000000
O     0.112000000    -2.670000000     6.530000000
H     0.279000000    -2.594000000     5.590000000
H     0.302000000    -1.799000000     6.878000000
O     2.116000000     6.720000000     3.508000000
H     1.848000000     6.005000000     2.932000000
H     2.275000000     7.457000000     2.917000000
O    -0.820000000    -4.463000000     2.181000000
H    -0.463000000    -5.226000000     1.727000000
H    -1.769000000    -4.549000000     2.083000000
O    -4.018000000    -2.951000000     3.502000000
H    -4.874000000    -3.076000000     3.093000000
H    -4.205000000    -2.907000000     4.440000000
O     2.208000000    -2.365000000    -4.461000000
H     1.861000000    -2.526000000    -5.338000000
H     1.431000000    -2.264000000    -3.911000000
O    -1.268000000    -3.588000000    -4.236000000
H    -2.184000000    -3.563000000    -3.959000000
H    -1.296000000    -3.395000000    -5.173000000
O    -2.030000000    -1.303000000     2.764000000
H    -2.666000000    -1.998000000     2.937000000
H    -1.185000000    -1.690000000     2.993000000
O    -3.864000000    -2.483000000    -0.036000000
H    -3.241000000    -1.782000000     0.157000000
H    -3.811000000    -3.066000000     0.722000000
O     2.175000000     0.762000000    -3.341000000
H     1.630000000     0.354000000    -4.013000000
H     2.176000000     1.692000000    -3.566000000
O     1.252000000     2.585000000     3.524000000
H     1.230000000     3.304000000     2.892000000
H     0.378000000     2.197000000     3.476000000
O    -4.217000000     3.950000000    -5.430000000
H    -4.694000000     3.586000000    -4.684000000
H    -3.478000000     4.414000000    -5.037000000
O    -4.593000000     3.597000000    -2.753000000
H    -4.869000000     3.355000000    -1.869000000
H    -4.345000000     4.519000000    -2.682000000
O    -5.328000000     0.939000000    -4.130000000
H    -5.060000000     1.789000000    -3.783000000
H    -4.613000000     0.347000000    -3.895000000
O    -2.997000000     3.140000000     0.242000000
H    -2.547000000     3.411000000    -0.557000000
H    -2.468000000     3.506000000     0.951000000
O    -4.048000000    -3.446000000    -3.282000000
H    -3.897000000    -3.271000000    -2.353000000
H    -4.562000000    -4.253000000    -3.294000000
O     2.638000000    -5.935000000     1.465000000
H     3.393000000    -5.567000000     1.923000000
H     1.906000000    -5.809000000     2.070000000
O    -1.995000000     4.082000000     3.012000000
H    -1.438000000     3.434000000     3.442000000
H    -2.544000000     4.430000000     3.715000000
O    -1.811000000     2.858000000    -6.895000000
H    -1.773000000     3.814000000    -6.857000000
H    -1.534000000     2.572000000    -6.025000000
O    -1.558000000     5.620000000    -0.974000000
H    -1.189000000     6.287000000    -1.553000000
H    -1.090000000     4.818000000    -1.203000000
O    -3.604000000     0.339000000     1.157000000
H    -3.126000000     0.904000000     0.549000000
H    -2.933000000    -0.235000000     1.527000000
O    -0.959000000     2.961000000    -4.292000000
H    -0.565000000     3.816000000    -4.461000000
H    -1.150000000     2.966000000    -3.354000000
O     3.428000000     0.439000000     2.777000000
H     3.739000000    -0.465000000     2.821000000
H     2.593000000     0.428000000     3.246000000
O    -5.692000000     3.100000000     0.052000000
H    -6.013000000     2.286000000     0.440000000
H    -4.749000000     3.087000000     0.215000000
O     1.299000000    -4.916000000    -0.739000000
H     1.803000000    -5.270000000    -0.006000000
H     1.908000000    -4.930000000    -1.477000000
O     0.850000000     1.184000000    -5.901000000
H     0.304000000     1.842000000    -5.471000000
H     1.697000000     1.614000000    -6.018000000
O    -1.421000000    -5.412000000    -1.008000000
H    -0.535000000    -5.133000000    -0.778000000
H    -1.405000000    -5.497000000    -1.961000000
O     4.423000000    -4.188000000     2.526000000
H     5.380000000    -4.213000000     2.522000000
H     4.200000000    -3.457000000     1.950000000
O     0.756000000     4.612000000     1.620000000
H     1.016000000     4.418000000     0.720000000
H    -0.200000000     4.656000000     1.589000000
O    -0.910000000     5.855000000    -5.641000000
H    -0.597000000     6.344000000    -4.879000000
H    -0.334000000     6.130000000    -6.354000000
O     4.016000000     3.089000000     3.047000000
H     4.284000000     3.246000000     2.142000000
H     3.384000000     2.373000000     2.990000000
O     3.079000000    -2.120000000     1.341000000
H     3.429000000    -1.529000000     0.673000000
H     2.235000000    -2.404000000     0.990000000
O     3.704000000    -6.318000000    -1.260000000
H     4.653000000    -6.385000000    -1.159000000
H     3.367000000    -6.310000000    -0.364000000
O     3.101000000    -0.502000000    -0.847000000
H     2.775000000    -0.065000000    -1.634000000
H     3.533000000    -1.291000000    -1.173000000
O     3.057000000    -2.996000000     4.615000000
H     3.622000000    -3.424000000     3.973000000
H     3.467000000    -2.144000000     4.765000000
O     1.969000000     3.654000000    -3.741000000
H     1.533000000     3.813000000    -2.904000000
H     2.023000000     4.517000000    -4.151000000
O    -4.025000000     6.063000000    -2.328000000
H    -3.954000000     7.003000000    -2.492000000
H    -3.212000000     5.837000000    -1.875000000
O    -3.127000000    -0.424000000    -3.956000000
H    -3.324000000    -1.342000000    -3.774000000
H    -2.387000000    -0.453000000    -4.562000000
O    -1.535000000     1.423000000     4.008000000
H    -2.191000000     1.305000000     4.695000000
H    -1.281000000     0.533000000     3.764000000
O     3.864000000     3.690000000    -0.253000000
H     4.272000000     2.824000000    -0.253000000
H     2.926000000     3.512000000    -0.319000000
O     1.340000000     0.525000000     5.429000000
H     1.703000000     1.341000000     5.084000000
H     0.985000000     0.764000000     6.285000000
O     5.275000000     5.857000000    -0.487000000
H     5.950000000     5.689000000    -1.144000000
H     4.875000000     5.002000000    -0.330000000
O    -3.859000000    -5.987000000     0.243000000
H    -3.081000000    -5.619000000    -0.176000000
H    -3.514000000    -6.551000000     0.935000000
O     0.551000000    -2.530000000     3.584000000
H     0.164000000    -3.254000000     3.092000000
H     1.468000000    -2.781000000     3.696000000
O    -0.062000000    -5.860000000    -3.739000000
H    -0.317000000    -4.955000000    -3.921000000
H    -0.085000000    -6.292000000    -4.592000000
O     2.324000000     6.491000000    -1.052000000
H     3.161000000     6.028000000    -1.013000000
H     1.674000000     5.831000000    -0.807000000
