158
-3035.34628
C     0.662000000     0.824000000    -1.019000000
H     1.214000000     1.375000000    -1.777000000
C     0.914000000    -0.527000000    -0.763000000
H     1.669000000    -1.096000000    -1.300000000
C     0.235000000    -1.176000000     0.261000000
H     0.433000000    -2.292000000     0.507000000
C    -0.817000000    -0.505000000     0.910000000
H    -1.437000000    -1.051000000     1.617000000
C    -1.045000000     0.848000000     0.652000000
H    -1.780000000     1.312000000     1.305000000
C    -0.340000000     1.530000000    -0.372000000
C    -0.822000000     2.912000000    -0.798000000
O    -1.687000000     3.567000000    -0.215000000
O    -0.046000000     3.396000000    -1.626000000
O    -5.580000000    -2.018000000    -0.242000000
H    -6.307000000    -1.498000000    -0.583000000
H    -5.110000000    -1.420000000     0.340000000
O    -4.036000000     2.415000000    -0.567000000
H    -4.591000000     3.055000000    -1.014000000
H    -3.313000000     2.931000000    -0.212000000
O    -1.741000000     3.335000000    -5.575000000
H    -1.464000000     4.211000000    -5.843000000
H    -2.307000000     3.484000000    -4.818000000
O    -1.470000000     5.598000000     1.600000000
H    -1.550000000     4.797000000     1.082000000
H    -2.255000000     5.608000000     2.148000000
O     3.889000000     0.008000000     3.384000000
H     4.744000000     0.420000000     3.508000000
H     4.085000000    -0.925000000     3.290000000
O    -4.040000000    -1.210000000     5.671000000
H    -3.412000000    -0.495000000     5.573000000
H    -4.823000000    -0.906000000     5.212000000
O    -2.826000000     4.147000000    -3.136000000
H    -2.779000000     3.308000000    -2.678000000
H    -2.108000000     4.662000000    -2.768000000
O    -4.726000000     6.688000000    -0.292000000
H    -3.912000000     7.093000000    -0.588000000
H    -5.285000000     6.676000000    -1.069000000
O    -0.388000000     6.070000000    -1.986000000
H    -0.112000000     5.206000000    -1.680000000
H    -0.962000000     6.397000000    -1.293000000
O    -6.136000000     3.718000000    -1.878000000
H    -6.870000000     4.154000000    -1.444000000
H    -5.705000000     4.413000000    -2.375000000
O     1.245000000     3.766000000     2.467000000
H     1.221000000     4.533000000     3.038000000
H     0.327000000     3.593000000     2.258000000
O    -1.604000000     3.467000000     3.856000000
H    -2.371000000     3.974000000     4.122000000
H    -1.965000000     2.650000000     3.512000000
O     2.988000000    -4.413000000     0.189000000
H     3.126000000    -4.065000000    -0.693000000
H     3.856000000    -4.394000000     0.592000000
O    -2.837000000     1.360000000    -3.816000000
H    -3.187000000     2.115000000    -4.289000000
H    -2.740000000     0.682000000    -4.485000000
O     0.977000000     3.969000000    -3.899000000
H     0.518000000     3.671000000    -3.113000000
H     0.743000000     3.329000000    -4.570000000
O    -1.001000000    -2.454000000     3.726000000
H    -0.301000000    -1.803000000     3.672000000
H    -1.119000000    -2.602000000     4.664000000
O     1.741000000    -4.648000000    -4.114000000
H     2.605000000    -4.295000000    -3.903000000
H     1.132000000    -3.946000000    -3.886000000
O     2.348000000     5.552000000    -1.821000000
H     1.520000000     5.354000000    -2.258000000
H     2.096000000     6.061000000    -1.050000000
O     4.348000000     0.678000000    -1.041000000
H     4.438000000     1.277000000    -1.783000000
H     3.415000000     0.695000000    -0.831000000
O    -4.513000000     0.223000000     1.329000000
H    -5.251000000     0.761000000     1.617000000
H    -4.062000000     0.764000000     0.680000000
O    -4.469000000     4.983000000     1.899000000
H    -5.143000000     4.308000000     1.815000000
H    -4.558000000     5.510000000     1.104000000
O     3.260000000    -1.917000000    -5.099000000
H     4.165000000    -1.825000000    -5.398000000
H     3.159000000    -1.238000000    -4.432000000
O    -2.194000000    -4.994000000     0.706000000
H    -2.497000000    -4.315000000     0.104000000
H    -1.465000000    -5.413000000     0.247000000
O     3.189000000     1.134000000    -3.756000000
H     2.511000000     1.779000000    -3.556000000
H     3.978000000     1.655000000    -3.905000000
O     3.604000000     3.260000000    -1.809000000
H     3.248000000     4.140000000    -1.927000000
H     3.580000000     3.117000000    -0.863000000
O    -2.110000000     7.472000000    -0.250000000
H    -2.088000000     7.163000000     0.656000000
H    -2.119000000     8.426000000    -0.177000000
O     5.452000000    -1.300000000     0.817000000
H     5.081000000    -0.680000000     0.189000000
H     6.399000000    -1.205000000     0.717000000
O     2.672000000    -6.362000000     4.402000000
H     3.560000000    -6.502000000     4.073000000
H     2.321000000    -5.661000000     3.852000000
O     5.833000000    -4.172000000     0.727000000
H     6.774000000    -4.347000000     0.708000000
H     5.767000000    -3.223000000     0.832000000
O     2.402000000    -2.781000000     6.085000000
H     3.072000000    -3.301000000     6.529000000
H     2.844000000    -2.432000000     5.311000000
O     3.732000000     5.018000000    -4.751000000
H     2.803000000     5.055000000    -4.526000000
H     4.060000000     4.245000000    -4.292000000
O     3.486000000     2.462000000     1.823000000
H     2.642000000     2.911000000     1.862000000
H     3.328000000     1.618000000     2.246000000
O    -3.801000000     1.566000000     4.209000000
H    -3.694000000     1.718000000     5.148000000
H    -4.628000000     1.091000000     4.136000000
O    -2.390000000    -4.682000000     3.546000000
H    -2.522000000    -4.842000000     2.612000000
H    -1.920000000    -3.848000000     3.582000000
O     1.416000000    -4.293000000     2.792000000
H     0.500000000    -4.019000000     2.838000000
H     1.689000000    -4.069000000     1.903000000
O     0.959000000    -0.576000000     3.385000000
H     1.845000000    -0.388000000     3.694000000
H     1.014000000    -0.488000000     2.433000000
O     0.324000000     1.754000000     4.840000000
H    -0.475000000     2.266000000     4.967000000
H     0.137000000     1.204000000     4.079000000
O    -1.275000000    -7.266000000     3.578000000
H    -1.214000000    -7.584000000     2.677000000
H    -1.661000000    -6.394000000     3.499000000
O    -3.227000000    -3.070000000    -1.006000000
H    -4.082000000    -2.955000000    -0.591000000
H    -2.888000000    -2.180000000    -1.107000000
O    -1.795000000    -0.567000000    -2.124000000
H    -1.181000000    -0.332000000    -1.428000000
H    -1.990000000     0.261000000    -2.562000000
O    -1.073000000     6.511000000    -5.044000000
H    -1.373000000     7.292000000    -4.580000000
H    -0.585000000     6.015000000    -4.387000000
O    -5.748000000     1.050000000    -2.432000000
H    -4.807000000     0.886000000    -2.372000000
H    -5.858000000     1.943000000    -2.104000000
O     1.150000000     6.830000000     0.546000000
H     1.618000000     6.860000000     1.380000000
H     0.302000000     6.440000000     0.760000000
O     0.721000000     2.079000000    -5.849000000
H     0.932000000     1.149000000    -5.927000000
H    -0.217000000     2.097000000    -5.661000000
O     4.055000000    -4.799000000    -2.402000000
H     4.883000000    -4.895000000    -1.932000000
H     3.868000000    -5.676000000    -2.738000000
O    -0.357000000    -3.410000000    -2.606000000
H    -0.702000000    -3.685000000    -1.758000000
H    -0.537000000    -2.470000000    -2.645000000
O     0.350000000    -5.543000000    -0.453000000
H     0.139000000    -6.245000000    -1.069000000
H     1.211000000    -5.778000000    -0.107000000
O     3.681000000    -2.782000000     3.636000000
H     3.155000000    -3.306000000     3.032000000
H     4.377000000    -3.373000000     3.924000000
