158
-3015.26257
C     0.470000000     1.100000000    -0.808000000
H     0.919000000     1.715000000    -1.584000000
C    -0.053000000    -0.174000000    -1.280000000
H     0.006000000    -0.354000000    -2.350000000
C    -0.438000000    -1.098000000    -0.377000000
H    -0.859000000    -1.991000000    -0.725000000
C    -0.379000000    -0.767000000     0.993000000
H    -0.770000000    -1.587000000     1.590000000
C    -0.046000000     0.552000000     1.356000000
H     0.111000000     0.715000000     2.419000000
C     0.416000000     1.489000000     0.478000000
C     1.004000000     2.796000000     0.918000000
O     1.003000000     3.111000000     2.060000000
O     1.461000000     3.526000000     0.062000000
O     4.796000000     5.034000000     3.345000000
H     4.205000000     5.337000000     4.035000000
H     4.510000000     4.140000000     3.160000000
O    -1.721000000     3.307000000    -1.489000000
H    -0.848000000     2.916000000    -1.522000000
H    -2.184000000     2.921000000    -2.232000000
O     4.013000000    -2.732000000     0.323000000
H     4.350000000    -2.166000000     1.017000000
H     4.303000000    -3.611000000     0.569000000
O    -1.913000000    -5.949000000     3.321000000
H    -1.606000000    -5.098000000     3.634000000
H    -1.322000000    -6.168000000     2.601000000
O     1.621000000    -3.820000000    -0.585000000
H     2.480000000    -3.711000000    -0.179000000
H     1.493000000    -3.020000000    -1.094000000
O    -3.077000000    -0.304000000    -1.613000000
H    -2.272000000    -0.286000000    -1.095000000
H    -3.760000000    -0.024000000    -1.004000000
O     3.540000000    -1.703000000    -2.297000000
H     4.094000000    -2.246000000    -2.857000000
H     3.723000000    -2.010000000    -1.408000000
O     2.527000000     0.621000000    -3.569000000
H     1.907000000     0.278000000    -4.212000000
H     2.697000000    -0.117000000    -2.982000000
O     1.763000000    -5.945000000    -2.061000000
H     1.026000000    -6.376000000    -1.628000000
H     1.972000000    -5.203000000    -1.495000000
O    -4.888000000    -5.324000000    -1.826000000
H    -4.494000000    -6.145000000    -2.121000000
H    -4.879000000    -4.762000000    -2.601000000
O     3.653000000     5.198000000    -1.024000000
H     4.050000000     5.356000000    -0.167000000
H     2.815000000     4.780000000    -0.827000000
O    -3.185000000     3.008000000     2.866000000
H    -3.397000000     2.916000000     3.795000000
H    -2.508000000     3.684000000     2.841000000
O     1.389000000    -4.185000000    -4.550000000
H     0.964000000    -3.358000000    -4.323000000
H     1.472000000    -4.649000000    -3.717000000
O    -0.110000000     2.299000000    -4.328000000
H     0.223000000     3.075000000    -3.878000000
H     0.659000000     1.924000000    -4.758000000
O    -4.229000000    -2.623000000     1.236000000
H    -3.580000000    -3.319000000     1.339000000
H    -3.768000000    -1.935000000     0.755000000
O    -1.025000000    -2.473000000     4.165000000
H    -0.553000000    -1.844000000     4.711000000
H    -0.427000000    -2.656000000     3.440000000
O    -1.568000000     1.979000000    -6.670000000
H    -2.369000000     1.502000000    -6.450000000
H    -1.114000000     2.083000000    -5.834000000
O    -0.047000000     7.928000000     0.271000000
H     0.859000000     8.233000000     0.316000000
H     0.006000000     7.085000000    -0.180000000
O    -0.083000000     5.469000000    -0.828000000
H    -0.833000000     4.934000000    -1.085000000
H     0.408000000     4.917000000    -0.219000000
O     1.584000000    -3.147000000     2.387000000
H     1.343000000    -2.845000000     1.511000000
H     2.530000000    -3.011000000     2.435000000
O    -3.368000000     0.013000000     3.019000000
H    -2.488000000    -0.243000000     3.295000000
H    -3.397000000     0.959000000     3.162000000
O     4.692000000    -0.261000000     1.489000000
H     4.845000000     0.262000000     0.701000000
H     3.993000000     0.202000000     1.951000000
O     0.636000000     5.624000000    -4.745000000
H     1.014000000     5.104000000    -4.035000000
H     1.379000000     6.107000000    -5.109000000
O     3.523000000     5.235000000     5.610000000
H     3.346000000     6.148000000     5.838000000
H     2.705000000     4.777000000     5.802000000
O    -4.652000000    -3.653000000    -4.300000000
H    -5.448000000    -3.380000000    -4.756000000
H    -4.089000000    -4.004000000    -4.991000000
O     0.378000000     3.328000000     4.705000000
H     0.570000000     3.199000000     3.777000000
H     0.424000000     4.276000000     4.831000000
O     5.663000000     2.805000000     1.489000000
H     4.908000000     2.918000000     0.912000000
H     6.365000000     2.508000000     0.910000000
O     4.221000000     6.475000000    -3.176000000
H     3.929000000     5.880000000    -2.485000000
H     5.001000000     6.056000000    -3.540000000
O    -1.732000000     2.752000000     6.357000000
H    -1.088000000     3.028000000     5.706000000
H    -2.204000000     2.033000000     5.937000000
O     1.129000000    -0.875000000    -5.524000000
H     0.892000000    -0.822000000    -6.450000000
H     0.493000000    -1.485000000    -5.149000000
O    -0.731000000    -2.407000000    -4.272000000
H    -1.478000000    -1.809000000    -4.277000000
H    -1.044000000    -3.177000000    -3.797000000
O     0.078000000    -5.543000000     1.234000000
H     0.972000000    -5.200000000     1.243000000
H     0.166000000    -6.431000000     0.889000000
O     0.246000000    -0.032000000     5.234000000
H     0.062000000     0.907000000     5.224000000
H     1.192000000    -0.093000000     5.100000000
O     1.616000000     4.037000000    -3.001000000
H     1.554000000     4.254000000    -2.071000000
H     2.528000000     3.777000000    -3.126000000
O    -3.539000000     2.088000000    -3.248000000
H    -3.656000000     1.773000000    -4.144000000
H    -3.546000000     1.294000000    -2.713000000
O     3.903000000     7.003000000     1.760000000
H     4.155000000     6.278000000     2.333000000
H     2.947000000     6.965000000     1.732000000
O    -4.004000000     3.884000000     0.170000000
H    -3.472000000     3.595000000     0.912000000
H    -3.400000000     3.881000000    -0.573000000
O     2.605000000     1.180000000     2.939000000
H     3.288000000     1.541000000     3.504000000
H     2.086000000     1.940000000     2.676000000
O    -3.061000000    -6.952000000    -0.205000000
H    -3.421000000    -7.562000000    -0.849000000
H    -3.222000000    -7.374000000     0.639000000
O    -2.089000000    -4.328000000     0.391000000
H    -2.402000000    -5.200000000     0.150000000
H    -1.166000000    -4.457000000     0.612000000
O    -3.295000000    -1.280000000    -4.003000000
H    -3.348000000    -1.064000000    -3.071000000
H    -3.756000000    -2.114000000    -4.082000000
O     0.323000000     5.994000000     4.918000000
H    -0.506000000     6.347000000     5.241000000
H     0.992000000     6.543000000     5.327000000
O    -2.148000000    -3.022000000     6.533000000
H    -1.663000000    -2.975000000     5.709000000
H    -1.526000000    -3.397000000     7.157000000
O     4.191000000     2.774000000    -3.133000000
H     4.640000000     3.034000000    -3.938000000
H     3.694000000     1.993000000    -3.377000000
O    -4.424000000    -5.442000000     2.102000000
H    -4.087000000    -5.347000000     1.211000000
H    -3.641000000    -5.503000000     2.649000000
O     3.818000000     1.977000000    -0.464000000
H     3.076000000     2.496000000    -0.155000000
H     3.927000000     2.233000000    -1.379000000
O    -1.321000000    -4.340000000    -2.564000000
H    -1.899000000    -4.162000000    -1.822000000
H    -1.402000000    -5.283000000    -2.709000000
O     1.482000000     5.915000000     2.262000000
H     1.013000000     6.112000000     3.073000000
H     1.352000000     4.976000000     2.133000000
