158
-2989.79589
C     0.898000000     0.392000000    -1.060000000
H     1.530000000     0.630000000    -1.912000000
C     0.110000000    -0.722000000    -1.132000000
H    -0.020000000    -1.386000000    -1.982000000
C    -0.793000000    -0.917000000    -0.048000000
H    -1.401000000    -1.826000000    -0.132000000
C    -0.695000000    -0.135000000     1.155000000
H    -1.275000000    -0.283000000     2.063000000
C     0.214000000     0.909000000     1.102000000
H     0.440000000     1.448000000     2.018000000
C     1.026000000     1.189000000     0.030000000
C     1.991000000     2.355000000     0.107000000
O     1.907000000     3.150000000     1.066000000
O     2.740000000     2.616000000    -0.829000000
O     5.725000000     5.028000000     3.636000000
H     5.873000000     4.168000000     3.243000000
H     5.352000000     4.838000000     4.496000000
O    -2.898000000    -5.164000000    -4.016000000
H    -3.355000000    -5.472000000    -3.234000000
H    -3.482000000    -5.389000000    -4.740000000
O    -4.254000000    -2.819000000    -1.491000000
H    -4.767000000    -3.336000000    -0.871000000
H    -3.381000000    -3.212000000    -1.468000000
O    -1.552000000     5.897000000    -1.937000000
H    -1.411000000     5.413000000    -1.124000000
H    -0.744000000     5.772000000    -2.435000000
O     4.359000000    -1.004000000     0.757000000
H     4.580000000    -0.073000000     0.779000000
H     5.140000000    -1.444000000     1.092000000
O     0.355000000    -7.039000000     2.150000000
H    -0.200000000    -6.414000000     2.617000000
H    -0.031000000    -7.095000000     1.276000000
O     1.955000000    -1.556000000     1.972000000
H     1.219000000    -1.174000000     1.493000000
H     2.646000000    -1.646000000     1.316000000
O    -2.142000000     1.916000000    -0.845000000
H    -2.719000000     1.989000000    -0.085000000
H    -1.551000000     1.195000000    -0.628000000
O     5.035000000    -1.052000000    -2.452000000
H     4.594000000    -1.901000000    -2.496000000
H     5.103000000    -0.866000000    -1.516000000
O     4.693000000     1.527000000    -3.823000000
H     5.418000000     1.270000000    -4.393000000
H     4.291000000     0.699000000    -3.559000000
O     0.598000000    -3.854000000    -0.092000000
H     1.354000000    -4.435000000    -0.005000000
H     0.411000000    -3.568000000     0.802000000
O    -5.272000000    -5.226000000     0.023000000
H    -4.978000000    -5.943000000     0.584000000
H    -5.878000000    -5.637000000    -0.593000000
O    -3.682000000     0.342000000     4.771000000
H    -3.548000000    -0.420000000     4.208000000
H    -4.620000000     0.524000000     4.710000000
O     4.089000000     4.942000000    -0.717000000
H     3.553000000     4.170000000    -0.897000000
H     4.989000000     4.618000000    -0.734000000
O    -0.465000000     4.641000000     0.522000000
H     0.344000000     4.143000000     0.641000000
H    -1.052000000     4.311000000     1.202000000
O    -7.087000000    -2.385000000     0.372000000
H    -7.126000000    -1.506000000     0.750000000
H    -6.818000000    -2.946000000     1.099000000
O     2.922000000    -3.598000000    -2.188000000
H     3.713000000    -3.816000000    -1.694000000
H     2.221000000    -4.065000000    -1.734000000
O    -0.293000000     3.068000000    -2.820000000
H     0.575000000     2.663000000    -2.799000000
H    -0.662000000     2.889000000    -1.955000000
O    -0.472000000    -3.980000000     2.459000000
H    -1.223000000    -4.052000000     1.871000000
H    -0.586000000    -4.697000000     3.084000000
O     0.687000000     7.074000000     0.449000000
H     0.162000000     6.283000000     0.570000000
H     1.306000000     6.846000000    -0.245000000
O    -1.961000000     3.747000000     2.407000000
H    -2.866000000     3.979000000     2.614000000
H    -1.496000000     3.826000000     3.240000000
O     6.062000000     2.533000000     2.760000000
H     6.618000000     1.754000000     2.739000000
H     5.455000000     2.414000000     2.029000000
O     2.257000000     5.203000000    -5.131000000
H     2.396000000     4.430000000    -4.583000000
H     3.080000000     5.309000000    -5.608000000
O    -4.588000000    -0.115000000     0.742000000
H    -4.387000000    -0.780000000     0.084000000
H    -3.972000000    -0.288000000     1.454000000
O     0.320000000     4.283000000     4.221000000
H     1.063000000     3.681000000     4.219000000
H     0.680000000     5.108000000     4.546000000
O     3.861000000     6.989000000    -2.824000000
H     3.132000000     6.592000000    -3.300000000
H     4.128000000     6.321000000    -2.193000000
O     0.104000000     2.262000000    -5.977000000
H     0.767000000     2.026000000    -6.626000000
H     0.594000000     2.698000000    -5.280000000
O    -0.883000000    -3.257000000    -4.998000000
H    -1.085000000    -3.506000000    -5.900000000
H    -1.428000000    -3.834000000    -4.463000000
O     0.862000000     6.377000000    -3.110000000
H     1.305000000     5.777000000    -3.710000000
H     0.537000000     7.081000000    -3.672000000
O     2.095000000    -3.275000000    -4.739000000
H     2.297000000    -3.305000000    -3.804000000
H     1.275000000    -2.784000000    -4.790000000
O     2.133000000     2.362000000     5.815000000
H     2.398000000     2.607000000     4.928000000
H     2.957000000     2.208000000     6.277000000
O    -3.368000000    -1.760000000     3.132000000
H    -4.072000000    -2.404000000     3.216000000
H    -2.596000000    -2.278000000     2.901000000
O     2.477000000     3.324000000    -3.243000000
H     2.497000000     3.177000000    -2.298000000
H     3.081000000     2.673000000    -3.600000000
O    -3.645000000     1.077000000    -3.372000000
H    -2.842000000     0.926000000    -3.870000000
H    -3.364000000     1.069000000    -2.457000000
O     2.846000000     3.356000000     3.384000000
H     3.376000000     4.122000000     3.163000000
H     2.353000000     3.167000000     2.585000000
O    -0.695000000    -7.109000000    -0.231000000
H    -0.939000000    -7.805000000    -0.841000000
H    -0.951000000    -6.300000000    -0.675000000
O    -1.829000000     0.315000000    -5.263000000
H    -1.021000000     0.799000000    -5.433000000
H    -1.892000000    -0.307000000    -5.987000000
O    -0.835000000    -1.747000000     4.449000000
H    -0.242000000    -1.911000000     5.182000000
H    -0.361000000    -2.067000000     3.681000000
O    -2.428000000     4.235000000     5.437000000
H    -1.513000000     4.041000000     5.232000000
H    -2.683000000     3.556000000     6.062000000
O    -7.261000000     0.452000000     1.076000000
H    -6.376000000     0.571000000     0.733000000
H    -7.795000000     0.269000000     0.304000000
O     6.184000000     3.089000000    -1.836000000
H     6.634000000     3.774000000    -2.332000000
H     5.691000000     2.601000000    -2.495000000
O    -2.932000000    -4.163000000     1.318000000
H    -2.850000000    -4.525000000     0.436000000
H    -3.326000000    -4.869000000     1.831000000
O     5.197000000     1.840000000     0.278000000
H     4.268000000     2.072000000     0.262000000
H     5.609000000     2.462000000    -0.321000000
O    -6.190000000    -2.196000000    -3.957000000
H    -5.653000000    -2.180000000    -3.165000000
H    -5.673000000    -2.698000000    -4.587000000
O    -6.400000000    -4.416000000     2.443000000
H    -6.129000000    -5.102000000     1.833000000
H    -5.582000000    -4.097000000     2.823000000
O    -1.497000000    -4.328000000    -1.601000000
H    -1.238000000    -4.211000000    -2.515000000
H    -0.744000000    -4.020000000    -1.097000000
O     3.074000000     5.752000000     1.637000000
H     2.340000000     5.172000000     1.840000000
H     3.405000000     5.435000000     0.797000000
O    -2.598000000    -1.385000000     6.778000000
H    -3.148000000    -0.615000000     6.633000000
H    -2.037000000    -1.428000000     6.003000000
