158
-3009.52781
C     0.649000000     0.651000000    -1.174000000
H     1.141000000     1.156000000    -2.001000000
C    -0.193000000    -0.424000000    -1.316000000
H    -0.523000000    -0.873000000    -2.249000000
C    -0.748000000    -0.992000000    -0.169000000
H    -1.503000000    -1.803000000    -0.284000000
C    -0.398000000    -0.484000000     1.088000000
H    -0.817000000    -0.907000000     1.998000000
C     0.453000000     0.565000000     1.201000000
H     0.624000000     0.888000000     2.225000000
C     1.028000000     1.165000000     0.081000000
C     2.040000000     2.324000000     0.259000000
O     2.127000000     2.935000000     1.326000000
O     2.806000000     2.571000000    -0.672000000
O     5.792000000     4.805000000    -0.936000000
H     5.813000000     4.206000000    -1.682000000
H     5.809000000     4.233000000    -0.169000000
O     5.740000000     1.743000000     3.693000000
H     5.821000000     0.803000000     3.850000000
H     5.628000000     2.123000000     4.565000000
O    -5.054000000    -3.613000000    -0.102000000
H    -4.442000000    -4.348000000    -0.092000000
H    -5.720000000    -3.847000000     0.544000000
O    -0.544000000     4.565000000    -2.619000000
H    -0.831000000     4.601000000    -3.531000000
H    -0.733000000     3.668000000    -2.344000000
O    -6.149000000     0.851000000    -3.932000000
H    -5.256000000     1.146000000    -4.113000000
H    -6.095000000     0.438000000    -3.071000000
O     4.363000000    -2.247000000     0.145000000
H     4.188000000    -1.416000000    -0.297000000
H     3.591000000    -2.397000000     0.689000000
O    -0.251000000    -5.764000000     3.288000000
H     0.003000000    -6.579000000     3.722000000
H    -0.319000000    -5.997000000     2.362000000
O     1.913000000    -2.412000000     1.073000000
H     1.548000000    -3.135000000     0.563000000
H     1.370000000    -1.658000000     0.843000000
O     3.211000000    -2.567000000     4.920000000
H     2.533000000    -2.334000000     5.556000000
H     2.730000000    -2.957000000     4.190000000
O    -2.259000000     2.106000000    -2.170000000
H    -2.097000000     1.417000000    -1.526000000
H    -3.110000000     2.468000000    -1.924000000
O     1.292000000    -1.672000000     6.471000000
H     1.253000000    -1.469000000     7.406000000
H     0.640000000    -1.095000000     6.074000000
O     0.969000000    -4.053000000    -0.993000000
H     0.245000000    -4.245000000    -1.589000000
H     1.051000000    -4.840000000    -0.454000000
O    -3.199000000    -5.571000000     0.031000000
H    -2.660000000    -6.361000000     0.015000000
H    -2.569000000    -4.852000000     0.074000000
O    -3.085000000    -0.400000000     6.097000000
H    -3.929000000    -0.006000000     6.314000000
H    -3.304000000    -1.273000000     5.772000000
O     4.985000000     3.215000000     1.253000000
H     4.069000000     3.108000000     0.994000000
H     5.101000000     2.605000000     1.981000000
O    -1.114000000     5.296000000     0.381000000
H    -1.470000000     6.035000000    -0.112000000
H    -1.832000000     4.664000000     0.420000000
O     2.288000000    -3.302000000    -4.144000000
H     1.925000000    -3.258000000    -3.259000000
H     2.867000000    -4.064000000    -4.128000000
O     2.453000000     4.067000000    -2.867000000
H     1.496000000     4.029000000    -2.848000000
H     2.731000000     3.405000000    -2.235000000
O    -1.376000000    -3.366000000     5.906000000
H    -0.945000000    -2.943000000     5.164000000
H    -2.311000000    -3.299000000     5.710000000
O    -0.961000000     1.146000000    -5.865000000
H    -1.226000000     0.521000000    -6.540000000
H    -0.062000000     0.898000000    -5.649000000
O     5.698000000     7.151000000     0.225000000
H     4.855000000     7.145000000     0.679000000
H     5.793000000     6.261000000    -0.115000000
O    -6.589000000    -0.176000000     1.857000000
H    -5.663000000    -0.421000000     1.857000000
H    -6.583000000     0.781000000     1.846000000
O    -0.480000000     0.296000000     5.396000000
H    -1.417000000     0.107000000     5.432000000
H    -0.431000000     1.220000000     5.150000000
O    -3.257000000     3.709000000     1.095000000
H    -3.135000000     3.538000000     2.029000000
H    -4.206000000     3.691000000     0.970000000
O     3.729000000     3.089000000    -5.140000000
H     3.109000000     3.511000000    -4.546000000
H     3.999000000     3.785000000    -5.738000000
O    -2.364000000    -3.304000000     2.402000000
H    -2.501000000    -4.244000000     2.511000000
H    -1.546000000    -3.125000000     2.866000000
O    -3.218000000    -1.327000000    -5.181000000
H    -4.148000000    -1.392000000    -5.400000000
H    -3.109000000    -0.429000000    -4.866000000
O     1.613000000     5.404000000     0.915000000
H     0.676000000     5.564000000     0.807000000
H     1.702000000     4.453000000     0.854000000
O     3.751000000     0.175000000    -5.888000000
H     4.595000000     0.000000000    -5.472000000
H     3.601000000     1.108000000    -5.742000000
O    -1.579000000    -2.151000000    -7.332000000
H    -1.974000000    -1.834000000    -6.519000000
H    -2.060000000    -2.954000000    -7.534000000
O     1.116000000    -3.605000000    -6.873000000
H     1.119000000    -3.303000000    -5.965000000
H     0.533000000    -2.997000000    -7.326000000
O    -0.316000000     2.742000000     4.516000000
H     0.356000000     2.304000000     3.994000000
H    -0.890000000     3.154000000     3.870000000
O    -3.859000000    -2.629000000     4.783000000
H    -4.796000000    -2.802000000     4.881000000
H    -3.662000000    -2.884000000     3.882000000
O     3.246000000     6.210000000    -1.613000000
H     2.902000000     5.472000000    -2.116000000
H     3.892000000     5.818000000    -1.024000000
O    -3.422000000     1.857000000    -4.504000000
H    -2.691000000     2.135000000    -5.055000000
H    -3.097000000     1.952000000    -3.609000000
O    -0.349000000    -6.419000000     0.608000000
H    -0.901000000    -7.028000000     0.117000000
H     0.466000000    -6.379000000     0.109000000
O     2.344000000     2.023000000     3.809000000
H     2.811000000     1.195000000     3.703000000
H     2.246000000     2.360000000     2.919000000
O    -0.767000000    -5.413000000    -2.818000000
H    -1.299000000    -6.106000000    -3.207000000
H    -1.220000000    -4.603000000    -3.050000000
O     1.229000000    -0.487000000    -5.599000000
H     1.881000000     0.166000000    -5.852000000
H     1.732000000    -1.293000000    -5.476000000
O    -4.191000000    -1.286000000     0.797000000
H    -4.492000000    -2.093000000     0.379000000
H    -3.429000000    -1.552000000     1.311000000
O     5.803000000     3.012000000    -3.066000000
H     5.119000000     3.015000000    -3.736000000
H     6.106000000     2.104000000    -3.038000000
O     0.292000000    -3.090000000     3.454000000
H     0.862000000    -2.921000000     2.704000000
H     0.132000000    -4.034000000     3.425000000
O     3.969000000     5.672000000     2.170000000
H     4.426000000     4.966000000     1.712000000
H     3.042000000     5.451000000     2.085000000
O     4.568000000     0.325000000    -0.749000000
H     4.065000000     1.137000000    -0.814000000
H     5.390000000     0.516000000    -1.201000000
O    -6.633000000    -3.513000000    -2.237000000
H    -6.092000000    -3.616000000    -1.453000000
H    -6.063000000    -3.782000000    -2.957000000
O    -5.355000000    -0.634000000    -1.565000000
H    -4.796000000    -0.561000000    -0.791000000
H    -5.776000000    -1.489000000    -1.476000000
O    -2.415000000    -3.321000000    -3.442000000
H    -2.276000000    -2.445000000    -3.804000000
H    -3.222000000    -3.626000000    -3.857000000
O     0.711000000     5.709000000     3.590000000
H     0.769000000     5.776000000     2.637000000
H     1.228000000     4.933000000     3.807000000
