158
-3055.18829
C     1.309000000    -0.603000000    -0.267000000
H     2.263000000    -1.100000000    -0.417000000
C     0.187000000    -1.268000000     0.221000000
H     0.212000000    -2.331000000     0.445000000
C    -1.028000000    -0.595000000     0.374000000
H    -1.952000000    -1.141000000     0.591000000
C    -1.103000000     0.797000000     0.169000000
H    -2.060000000     1.306000000     0.244000000
C     0.074000000     1.427000000    -0.281000000
H     0.040000000     2.499000000    -0.455000000
C     1.323000000     0.757000000    -0.506000000
C     2.544000000     1.548000000    -0.876000000
O     2.530000000     2.761000000    -1.202000000
O     3.627000000     1.009000000    -0.809000000
O     7.353000000    -0.573000000    -1.297000000
H     8.254000000    -0.647000000    -1.609000000
H     7.059000000     0.282000000    -1.613000000
O    -7.431000000    -2.778000000     1.501000000
H    -7.059000000    -3.235000000     2.255000000
H    -8.200000000    -3.295000000     1.263000000
O    -7.929000000    -0.161000000     2.079000000
H    -7.740000000    -1.069000000     1.844000000
H    -7.069000000     0.232000000     2.227000000
O     6.396000000     1.909000000    -2.044000000
H     5.869000000     2.338000000    -1.369000000
H     6.057000000     2.257000000    -2.869000000
O     2.721000000    -4.071000000     0.820000000
H     2.846000000    -3.182000000     1.153000000
H     2.806000000    -3.985000000    -0.130000000
O     4.305000000    -1.104000000     3.192000000
H     3.372000000    -1.246000000     3.032000000
H     4.517000000    -0.317000000     2.690000000
O     5.002000000     4.416000000    -5.173000000
H     5.807000000     3.954000000    -5.404000000
H     4.470000000     3.759000000    -4.724000000
O    -0.371000000     0.395000000     3.965000000
H    -0.313000000     1.214000000     3.472000000
H    -1.155000000     0.496000000     4.505000000
O    -1.545000000     4.199000000     1.184000000
H    -1.332000000     4.781000000     0.455000000
H    -2.366000000     3.781000000     0.926000000
O    -5.050000000    -4.347000000     3.315000000
H    -4.962000000    -4.690000000     2.425000000
H    -5.069000000    -5.126000000     3.871000000
O     0.257000000    -5.158000000     0.615000000
H    -0.169000000    -4.308000000     0.726000000
H     1.179000000    -4.992000000     0.814000000
O    -2.965000000     0.310000000     5.176000000
H    -2.634000000    -0.300000000     5.836000000
H    -3.387000000     1.004000000     5.682000000
O     3.348000000     2.490000000    -4.038000000
H     3.230000000     2.497000000    -3.088000000
H     3.766000000     1.649000000    -4.222000000
O    -1.277000000     5.238000000    -1.409000000
H    -2.032000000     5.170000000    -1.993000000
H    -0.541000000     4.916000000    -1.930000000
O    -6.440000000     0.565000000    -3.493000000
H    -6.651000000     1.084000000    -2.716000000
H    -6.068000000    -0.245000000    -3.145000000
O     1.280000000     3.758000000    -5.048000000
H     1.779000000     4.166000000    -5.756000000
H     1.776000000     2.969000000    -4.830000000
O    -3.048000000     4.647000000    -3.427000000
H    -2.370000000     4.080000000    -3.794000000
H    -3.870000000     4.202000000    -3.634000000
O    -3.888000000    -0.850000000     2.879000000
H    -3.778000000    -0.363000000     3.696000000
H    -3.317000000    -1.612000000     2.976000000
O     0.404000000     6.494000000     1.960000000
H     0.629000000     5.565000000     1.902000000
H     0.651000000     6.745000000     2.850000000
O     7.909000000     0.439000000     1.274000000
H     8.728000000     0.075000000     1.611000000
H     7.599000000    -0.211000000     0.643000000
O     4.598000000    -1.408000000    -1.875000000
H     5.538000000    -1.238000000    -1.937000000
H     4.218000000    -0.565000000    -1.628000000
O    -4.247000000     2.848000000    -0.034000000
H    -3.974000000     2.278000000    -0.753000000
H    -4.773000000     3.529000000    -0.453000000
O     0.118000000     2.717000000     2.964000000
H    -0.613000000     2.961000000     2.396000000
H     0.873000000     3.173000000     2.592000000
O     1.287000000    -2.554000000    -4.119000000
H     1.111000000    -3.493000000    -4.182000000
H     0.818000000    -2.172000000    -4.861000000
O     5.159000000     3.686000000    -0.514000000
H     5.097000000     4.634000000    -0.632000000
H     4.256000000     3.376000000    -0.586000000
O     4.286000000     0.037000000    -4.712000000
H     4.198000000    -0.733000000    -4.149000000
H     3.532000000    -0.009000000    -5.300000000
O    -2.493000000    -3.364000000     3.655000000
H    -3.391000000    -3.695000000     3.671000000
H    -1.964000000    -4.120000000     3.399000000
O     4.095000000     5.696000000    -2.609000000
H     4.352000000     5.217000000    -3.397000000
H     3.184000000     5.441000000    -2.461000000
O     1.405000000     4.831000000    -2.395000000
H     1.289000000     4.413000000    -3.248000000
H     1.794000000     4.151000000    -1.846000000
O    -1.052000000    -7.389000000     1.118000000
H    -0.430000000    -6.689000000     0.917000000
H    -1.661000000    -7.387000000     0.380000000
O    -5.633000000    -2.495000000     5.390000000
H    -5.089000000    -2.781000000     6.123000000
H    -5.380000000    -3.067000000     4.666000000
O    -4.968000000    -1.551000000    -2.297000000
H    -5.147000000    -1.595000000    -1.358000000
H    -4.053000000    -1.274000000    -2.354000000
O     1.945000000     3.962000000     1.390000000
H     1.722000000     3.549000000     0.555000000
H     2.493000000     4.709000000     1.149000000
O    -4.609000000    -2.278000000     0.545000000
H    -5.510000000    -2.381000000     0.853000000
H    -4.180000000    -1.764000000     1.229000000
O     3.066000000    -3.545000000    -1.887000000
H     2.430000000    -3.318000000    -2.566000000
H     3.631000000    -2.776000000    -1.821000000
O     0.692000000    -6.400000000    -2.069000000
H     0.418000000    -7.207000000    -2.505000000
H     0.217000000    -6.403000000    -1.239000000
O     5.128000000     1.081000000     1.500000000
H     4.679000000     1.252000000     0.672000000
H     5.942000000     0.647000000     1.245000000
O    -1.048000000    -5.559000000     3.473000000
H    -0.091000000    -5.580000000     3.455000000
H    -1.313000000    -6.420000000     3.151000000
O    -4.975000000    -5.895000000     0.953000000
H    -4.683000000    -5.510000000     0.127000000
H    -4.954000000    -6.839000000     0.798000000
O    -5.357000000     1.087000000     1.875000000
H    -4.744000000     0.370000000     2.040000000
H    -4.837000000     1.746000000     1.416000000
O    -2.815000000     0.388000000    -2.424000000
H    -2.306000000     0.801000000    -1.726000000
H    -2.196000000     0.293000000    -3.148000000
O    -0.217000000    -2.239000000     4.926000000
H    -1.028000000    -2.605000000     4.574000000
H    -0.266000000    -1.306000000     4.718000000
O     0.980000000     7.502000000    -2.470000000
H     1.064000000     6.550000000    -2.415000000
H     1.085000000     7.804000000    -1.568000000
O    -3.816000000    -4.632000000    -1.606000000
H    -3.638000000    -4.495000000    -2.537000000
H    -4.364000000    -3.888000000    -1.356000000
O    -1.362000000     2.651000000    -4.426000000
H    -0.522000000     2.803000000    -4.860000000
H    -1.418000000     1.700000000    -4.339000000
O    -2.740000000    -7.288000000    -1.041000000
H    -3.237000000    -6.538000000    -1.368000000
H    -3.404000000    -7.951000000    -0.851000000
O     1.700000000    -1.032000000     2.795000000
H     1.532000000    -0.975000000     1.854000000
H     0.918000000    -0.657000000     3.201000000
O     4.342000000     3.225000000     2.877000000
H     4.717000000     2.514000000     2.356000000
H     3.459000000     3.340000000     2.525000000
