158
-3037.87459
C     0.778000000    -0.632000000    -1.127000000
H     1.249000000    -1.117000000    -1.979000000
C    -0.444000000    -1.096000000    -0.611000000
H    -0.889000000    -2.020000000    -0.971000000
C    -1.041000000    -0.396000000     0.410000000
H    -1.966000000    -0.803000000     0.855000000
C    -0.529000000     0.754000000     0.933000000
H    -1.023000000     1.278000000     1.747000000
C     0.678000000     1.200000000     0.450000000
H     1.138000000     2.053000000     0.943000000
C     1.350000000     0.534000000    -0.566000000
C     2.724000000     0.991000000    -0.965000000
O     3.165000000     2.102000000    -0.594000000
O     3.311000000     0.398000000    -1.858000000
O    -1.584000000    -4.892000000    -1.488000000
H    -1.238000000    -5.637000000    -0.996000000
H    -0.834000000    -4.561000000    -1.981000000
O    -7.275000000    -1.968000000     0.838000000
H    -6.760000000    -1.184000000     1.028000000
H    -6.810000000    -2.674000000     1.288000000
O    -4.234000000    -1.098000000    -1.044000000
H    -4.962000000    -1.592000000    -1.423000000
H    -4.578000000    -0.211000000    -0.936000000
O    -2.969000000     2.793000000     2.589000000
H    -3.754000000     2.777000000     2.042000000
H    -2.471000000     3.546000000     2.270000000
O     2.570000000    -4.196000000    -0.372000000
H     1.885000000    -4.173000000    -1.041000000
H     3.053000000    -3.379000000    -0.498000000
O     5.278000000    -1.876000000     1.636000000
H     5.552000000    -2.740000000     1.329000000
H     4.325000000    -1.880000000     1.544000000
O     5.294000000     1.144000000    -5.522000000
H     5.653000000     1.897000000    -5.052000000
H     5.528000000     1.299000000    -6.437000000
O    -5.709000000     1.974000000     1.740000000
H    -5.596000000     1.043000000     1.932000000
H    -6.312000000     2.286000000     2.415000000
O     1.897000000    -0.098000000     4.170000000
H     1.813000000    -0.091000000     5.124000000
H     2.108000000     0.807000000     3.942000000
O    -1.192000000     5.447000000     2.348000000
H    -0.299000000     5.163000000     2.149000000
H    -1.431000000     6.016000000     1.616000000
O    -1.910000000    -4.198000000     2.833000000
H    -2.042000000    -3.699000000     2.027000000
H    -2.501000000    -4.947000000     2.749000000
O    -4.817000000    -0.784000000     2.148000000
H    -4.615000000    -0.743000000     3.083000000
H    -4.251000000    -1.478000000     1.811000000
O    -0.898000000    -2.225000000    -5.733000000
H    -0.833000000    -1.349000000    -5.351000000
H    -1.359000000    -2.741000000    -5.072000000
O    -4.174000000     1.794000000    -3.609000000
H    -5.054000000     2.052000000    -3.338000000
H    -3.678000000     1.739000000    -2.792000000
O     3.112000000     2.548000000    -3.718000000
H     3.298000000     1.739000000    -3.242000000
H     2.343000000     2.913000000    -3.279000000
O    -5.355000000     0.585000000     4.700000000
H    -6.181000000     0.101000000     4.686000000
H    -5.597000000     1.463000000     4.993000000
O    -1.064000000    -1.402000000     4.669000000
H    -0.151000000    -1.477000000     4.394000000
H    -1.349000000    -2.306000000     4.804000000
O     5.892000000     0.588000000    -2.612000000
H     5.576000000     0.602000000    -3.515000000
H     5.120000000     0.370000000    -2.091000000
O     1.547000000     4.724000000     2.383000000
H     1.913000000     5.330000000     3.027000000
H     2.105000000     3.948000000     2.440000000
O     0.990000000     4.328000000    -3.114000000
H     1.325000000     4.631000000    -2.270000000
H     0.135000000     3.949000000    -2.911000000
O     0.237000000     2.984000000     5.864000000
H    -0.159000000     2.511000000     5.132000000
H    -0.137000000     3.863000000     5.811000000
O    -3.921000000     0.388000000     6.944000000
H    -3.687000000    -0.537000000     6.870000000
H    -4.049000000     0.675000000     6.040000000
O    -5.799000000    -3.929000000     1.970000000
H    -4.879000000    -3.858000000     1.717000000
H    -5.987000000    -4.866000000     1.931000000
O     4.962000000    -3.091000000    -2.940000000
H     4.546000000    -3.948000000    -3.033000000
H     5.121000000    -2.803000000    -3.839000000
O     5.792000000     3.061000000    -1.366000000
H     4.899000000     2.725000000    -1.294000000
H     6.343000000     2.279000000    -1.371000000
O     2.302000000     2.522000000     3.850000000
H     1.703000000     2.663000000     4.583000000
H     3.148000000     2.838000000     4.168000000
O     0.202000000    -5.069000000     4.087000000
H    -0.109000000    -5.974000000     4.110000000
H    -0.493000000    -4.588000000     3.636000000
O     1.501000000     0.305000000    -6.423000000
H     1.809000000     0.400000000    -7.324000000
H     2.120000000     0.818000000    -5.903000000
O     6.238000000     4.457000000     1.537000000
H     5.876000000     3.635000000     1.207000000
H     6.062000000     5.092000000     0.843000000
O     5.767000000    -1.944000000    -5.501000000
H     5.439000000    -1.052000000    -5.386000000
H     6.719000000    -1.845000000    -5.543000000
O     5.880000000     5.867000000    -0.763000000
H     6.048000000     4.958000000    -1.011000000
H     6.705000000     6.319000000    -0.939000000
O     6.478000000     3.521000000    -4.206000000
H     6.161000000     3.302000000    -3.330000000
H     7.413000000     3.315000000    -4.181000000
O    -3.326000000    -3.393000000     0.476000000
H    -3.596000000    -2.588000000     0.035000000
H    -2.819000000    -3.868000000    -0.182000000
O    -1.751000000     1.389000000     4.465000000
H    -1.603000000     0.443000000     4.487000000
H    -2.272000000     1.532000000     3.676000000
O    -3.135000000     2.082000000    -1.069000000
H    -3.387000000     2.940000000    -0.729000000
H    -3.200000000     1.497000000    -0.314000000
O    -3.684000000     3.483000000     5.871000000
H    -3.218000000     4.275000000     5.606000000
H    -3.396000000     2.816000000     5.247000000
O    -2.995000000    -1.720000000    -3.704000000
H    -2.489000000    -0.947000000    -3.955000000
H    -3.017000000    -1.692000000    -2.748000000
O     2.143000000     4.581000000    -0.399000000
H     2.796000000     3.898000000    -0.246000000
H     1.750000000     4.733000000     0.460000000
O    -4.314000000    -4.801000000    -2.646000000
H    -4.751000000    -3.951000000    -2.696000000
H    -3.418000000    -4.595000000    -2.379000000
O    -6.024000000     0.880000000    -0.698000000
H    -6.975000000     0.837000000    -0.799000000
H    -5.886000000     1.523000000    -0.002000000
O     3.974000000    -1.956000000    -0.918000000
H     4.243000000    -2.494000000    -1.663000000
H     3.771000000    -1.102000000    -1.299000000
O     7.001000000     0.441000000     1.514000000
H     6.257000000     1.033000000     1.398000000
H     6.612000000    -0.433000000     1.527000000
O     1.041000000    -4.752000000    -2.579000000
H     0.984000000    -5.603000000    -2.145000000
H     1.143000000    -4.964000000    -3.507000000
O    -3.465000000     4.667000000     0.237000000
H    -2.864000000     5.408000000     0.313000000
H    -4.336000000     5.053000000     0.334000000
O    -0.738000000     2.352000000    -2.483000000
H    -1.628000000     2.308000000    -2.133000000
H    -0.205000000     1.882000000    -1.842000000
O    -0.740000000     0.337000000    -4.644000000
H    -0.672000000     0.948000000    -3.910000000
H    -0.391000000     0.821000000    -5.392000000
O     2.393000000    -1.843000000     2.282000000
H     2.286000000    -1.219000000     2.999000000
H     2.035000000    -1.392000000     1.517000000
O     4.497000000     2.119000000     1.632000000
H     3.887000000     2.256000000     2.357000000
H     3.957000000     2.208000000     0.846000000
