158
-2992.11625
C     0.113000000    -1.372000000    -0.567000000
H     0.167000000    -2.367000000    -1.001000000
C     0.120000000    -1.113000000     0.801000000
H     0.140000000    -1.917000000     1.532000000
C     0.036000000     0.223000000     1.173000000
H     0.120000000     0.450000000     2.231000000
C    -0.124000000     1.280000000     0.341000000
H    -0.217000000     2.327000000     0.618000000
C    -0.127000000     0.925000000    -1.000000000
H    -0.179000000     1.731000000    -1.727000000
C    -0.010000000    -0.332000000    -1.500000000
C     0.092000000    -0.522000000    -3.030000000
O     0.729000000     0.271000000    -3.743000000
O    -0.472000000    -1.493000000    -3.472000000
O     5.339000000    -0.235000000     1.022000000
H     4.472000000    -0.028000000     1.371000000
H     5.469000000     0.396000000     0.314000000
O    -0.598000000     3.099000000     7.332000000
H    -0.141000000     3.596000000     6.653000000
H    -1.310000000     2.659000000     6.868000000
O    -5.872000000     1.142000000     1.574000000
H    -5.229000000     1.320000000     2.260000000
H    -5.408000000     0.584000000     0.950000000
O     2.070000000    -2.142000000     6.749000000
H     1.908000000    -2.513000000     7.617000000
H     2.354000000    -1.244000000     6.923000000
O     3.880000000    -1.864000000    -3.506000000
H     3.993000000    -2.812000000    -3.445000000
H     4.197000000    -1.530000000    -2.666000000
O    -1.308000000     0.616000000     5.755000000
H    -1.129000000     0.020000000     6.482000000
H    -2.263000000     0.659000000     5.709000000
O     0.008000000     3.009000000     4.247000000
H     0.678000000     3.435000000     4.782000000
H    -0.286000000     2.268000000     4.777000000
O     1.376000000    -3.619000000    -3.379000000
H     1.978000000    -3.138000000    -3.947000000
H     0.703000000    -2.979000000    -3.146000000
O     1.660000000    -4.100000000    -6.022000000
H     1.687000000    -5.044000000    -6.176000000
H     1.227000000    -4.009000000    -5.172000000
O    -3.156000000     0.376000000    -3.827000000
H    -2.253000000     0.160000000    -4.059000000
H    -3.493000000     0.847000000    -4.589000000
O     2.903000000     2.540000000    -6.598000000
H     3.776000000     2.858000000    -6.369000000
H     2.765000000     1.785000000    -6.026000000
O    -3.388000000    -0.199000000     1.090000000
H    -3.285000000    -1.115000000     1.346000000
H    -3.271000000     0.292000000     1.904000000
O    -4.252000000     2.001000000     5.744000000
H    -4.337000000     2.778000000     6.296000000
H    -4.344000000     1.266000000     6.351000000
O    -0.337000000     6.048000000     1.729000000
H    -0.162000000     6.823000000     1.196000000
H    -0.236000000     6.350000000     2.632000000
O     2.916000000     0.144000000    -5.072000000
H     3.498000000    -0.351000000    -4.496000000
H     2.106000000     0.237000000    -4.571000000
O    -1.608000000     6.251000000     4.533000000
H    -1.184000000     5.413000000     4.351000000
H    -2.004000000     6.137000000     5.397000000
O     1.799000000     4.240000000     5.982000000
H     2.460000000     4.520000000     5.349000000
H     2.108000000     4.584000000     6.820000000
O    -3.865000000    -5.716000000    -2.861000000
H    -3.179000000    -6.379000000    -2.942000000
H    -3.414000000    -4.946000000    -2.515000000
O     1.820000000     4.144000000     2.214000000
H     1.169000000     4.842000000     2.285000000
H     1.374000000     3.365000000     2.547000000
O     3.809000000     1.651000000     4.368000000
H     4.357000000     1.005000000     4.813000000
H     4.431000000     2.267000000     3.982000000
O     3.119000000     3.003000000    -3.066000000
H     3.073000000     3.404000000    -2.198000000
H     2.218000000     3.021000000    -3.387000000
O    -1.553000000     1.189000000    -7.574000000
H    -1.448000000     0.285000000    -7.277000000
H    -0.671000000     1.465000000    -7.820000000
O     2.964000000     0.253000000     2.189000000
H     2.088000000     0.242000000     1.804000000
H     2.907000000     0.897000000     2.896000000
O    -3.174000000    -2.461000000    -6.275000000
H    -3.828000000    -2.883000000    -5.718000000
H    -2.574000000    -3.167000000    -6.517000000
O    -5.192000000    -1.255000000    -2.203000000
H    -5.746000000    -1.759000000    -2.798000000
H    -4.716000000    -0.650000000    -2.772000000
O    -3.987000000     1.544000000    -1.109000000
H    -3.581000000     1.121000000    -0.352000000
H    -3.707000000     1.015000000    -1.857000000
O    -3.510000000    -5.880000000     0.682000000
H    -3.155000000    -6.128000000     1.535000000
H    -2.746000000    -5.843000000     0.106000000
O     5.155000000     0.871000000    -1.937000000
H     5.387000000     1.649000000    -1.430000000
H     4.225000000     0.983000000    -2.134000000
O    -2.384000000    -3.153000000    -2.315000000
H    -2.980000000    -2.642000000    -1.767000000
H    -2.028000000    -2.519000000    -2.937000000
O     0.407000000     2.752000000    -4.204000000
H     0.410000000     1.804000000    -4.073000000
H     0.841000000     2.879000000    -5.048000000
O     1.314000000    -0.426000000    -7.621000000
H     2.068000000    -0.148000000    -7.100000000
H     0.684000000    -0.748000000    -6.977000000
O     2.685000000     4.354000000    -0.590000000
H     2.555000000     5.298000000    -0.676000000
H     2.256000000     4.126000000     0.234000000
O     0.991000000     2.485000000    -8.413000000
H     1.713000000     2.624000000    -7.800000000
H     1.401000000     2.081000000    -9.178000000
O     2.275000000    -5.982000000    -2.293000000
H     1.917000000    -5.168000000    -2.647000000
H     2.305000000    -5.839000000    -1.347000000
O    -1.322000000    -1.848000000     3.704000000
H    -1.351000000    -0.893000000     3.648000000
H    -0.547000000    -2.095000000     3.199000000
O    -1.308000000    -3.175000000     6.207000000
H    -0.485000000    -2.829000000     6.552000000
H    -1.400000000    -2.762000000     5.348000000
O     1.673000000    -1.990000000     3.596000000
H     2.461000000    -1.518000000     3.327000000
H     1.588000000    -1.802000000     4.531000000
O     4.306000000    -4.846000000     0.752000000
H     4.961000000    -5.494000000     0.491000000
H     3.472000000    -5.312000000     0.695000000
O    -1.312000000    -6.957000000    -1.739000000
H    -0.608000000    -7.073000000    -1.101000000
H    -0.893000000    -6.520000000    -2.481000000
O    -2.064000000     4.134000000    -4.156000000
H    -2.423000000     3.630000000    -4.886000000
H    -1.197000000     3.755000000    -4.007000000
O    -3.243000000     2.011000000     3.013000000
H    -3.161000000     2.951000000     2.852000000
H    -3.456000000     1.946000000     3.944000000
O    -4.077000000     4.399000000    -0.082000000
H    -4.363000000     3.494000000    -0.206000000
H    -3.461000000     4.357000000     0.650000000
O    -3.197000000     4.849000000     2.452000000
H    -2.328000000     5.249000000     2.494000000
H    -3.798000000     5.591000000     2.385000000
O    -3.379000000    -4.796000000     4.309000000
H    -2.753000000    -4.186000000     4.698000000
H    -3.758000000    -4.314000000     3.574000000
O    -0.800000000    -1.125000000    -6.036000000
H    -0.505000000    -1.198000000    -5.128000000
H    -1.634000000    -1.594000000    -6.055000000
O     1.671000000    -5.458000000     0.256000000
H     0.982000000    -6.122000000     0.265000000
H     1.482000000    -4.906000000     1.015000000
O     1.275000000    -4.686000000     2.866000000
H     1.330000000    -3.738000000     2.987000000
H     1.632000000    -5.051000000     3.675000000
O     0.165000000     6.389000000    -3.592000000
H     0.870000000     6.806000000    -3.096000000
H     0.079000000     5.520000000    -3.201000000
