158
-3017.43874
C    -0.849000000    -0.891000000     0.806000000
H    -1.340000000    -1.537000000     1.529000000
C    -0.212000000     0.191000000     1.290000000
H    -0.384000000     0.564000000     2.297000000
C     0.528000000     1.030000000     0.463000000
H     1.028000000     1.949000000     0.788000000
C     0.723000000     0.618000000    -0.828000000
H     1.295000000     1.174000000    -1.566000000
C     0.153000000    -0.534000000    -1.319000000
H     0.249000000    -0.670000000    -2.394000000
C    -0.699000000    -1.306000000    -0.514000000
C    -1.303000000    -2.559000000    -1.055000000
O    -1.200000000    -2.825000000    -2.264000000
O    -1.923000000    -3.356000000    -0.376000000
O    -1.852000000     6.330000000    -0.187000000
H    -1.905000000     7.240000000     0.105000000
H    -1.584000000     6.387000000    -1.104000000
O     4.146000000     3.321000000     4.160000000
H     3.887000000     3.566000000     3.271000000
H     3.484000000     3.724000000     4.722000000
O    -4.771000000    -1.250000000    -0.490000000
H    -4.814000000    -1.695000000     0.356000000
H    -4.266000000    -0.455000000    -0.318000000
O     1.998000000     7.283000000     0.217000000
H     2.831000000     7.700000000    -0.003000000
H     1.351000000     7.746000000    -0.314000000
O    -3.657000000    -3.802000000    -5.816000000
H    -2.967000000    -3.973000000    -5.176000000
H    -3.581000000    -4.517000000    -6.448000000
O    -1.628000000    -6.613000000    -3.576000000
H    -2.152000000    -6.326000000    -2.828000000
H    -1.538000000    -5.831000000    -4.120000000
O     4.281000000    -2.918000000     1.235000000
H     3.902000000    -2.040000000     1.225000000
H     3.873000000    -3.347000000     1.987000000
O     3.561000000    -1.383000000    -2.674000000
H     3.688000000    -1.900000000    -3.470000000
H     4.251000000    -1.681000000    -2.082000000
O    -3.298000000    -0.541000000     5.037000000
H    -2.523000000    -0.808000000     4.542000000
H    -3.722000000     0.115000000     4.484000000
O    -5.831000000    -2.178000000     2.537000000
H    -6.160000000    -2.834000000     3.152000000
H    -5.033000000    -2.565000000     2.178000000
O     1.066000000     3.549000000     3.544000000
H     1.294000000     4.456000000     3.748000000
H     0.517000000     3.610000000     2.762000000
O     1.671000000    -3.544000000    -2.237000000
H     1.904000000    -2.616000000    -2.192000000
H     0.714000000    -3.548000000    -2.273000000
O     0.509000000    -2.980000000    -6.330000000
H     0.907000000    -2.141000000    -6.562000000
H     0.833000000    -3.591000000    -6.993000000
O    -4.089000000    -4.002000000    -2.352000000
H    -3.214000000    -3.729000000    -2.076000000
H    -4.619000000    -3.208000000    -2.286000000
O     3.115000000     6.065000000     2.775000000
H     3.394000000     5.267000000     2.325000000
H     2.818000000     6.644000000     2.073000000
O    -6.140000000    -5.924000000    -1.394000000
H    -7.016000000    -5.537000000    -1.400000000
H    -5.561000000    -5.209000000    -1.658000000
O    -0.031000000     3.854000000    -1.116000000
H    -0.423000000     2.989000000    -0.999000000
H    -0.614000000     4.300000000    -1.731000000
O    -3.283000000     1.208000000    -0.317000000
H    -3.198000000     1.111000000    -1.265000000
H    -2.395000000     1.082000000     0.017000000
O    -0.300000000     5.313000000     1.996000000
H    -0.276000000     6.219000000     2.304000000
H    -0.833000000     5.344000000     1.201000000
O     1.538000000    -0.418000000    -6.534000000
H     2.471000000    -0.232000000    -6.427000000
H     1.100000000     0.246000000    -6.001000000
O    -1.299000000     4.399000000     5.328000000
H    -0.587000000     3.874000000     4.960000000
H    -0.950000000     5.289000000     5.358000000
O    -0.977000000    -0.771000000     7.012000000
H    -1.462000000    -0.711000000     6.189000000
H    -1.629000000    -1.048000000     7.655000000
O     2.434000000     4.616000000    -0.600000000
H     1.579000000     4.281000000    -0.870000000
H     2.251000000     5.490000000    -0.256000000
O    -2.397000000    -5.967000000    -0.901000000
H    -1.538000000    -6.274000000    -0.613000000
H    -2.345000000    -5.013000000    -0.836000000
O    -0.988000000    -6.005000000     3.619000000
H    -0.514000000    -6.068000000     2.790000000
H    -0.419000000    -5.479000000     4.181000000
O     0.842000000     1.633000000     5.423000000
H     0.713000000     0.757000000     5.061000000
H     1.022000000     2.184000000     4.661000000
O    -4.109000000    -6.433000000     1.435000000
H    -4.992000000    -6.231000000     1.124000000
H    -3.549000000    -6.296000000     0.671000000
O    -0.567000000     1.012000000    -5.405000000
H    -1.181000000     1.266000000    -6.094000000
H    -0.137000000     1.830000000    -5.154000000
O    -5.581000000     0.809000000    -2.240000000
H    -4.911000000     0.195000000    -1.939000000
H    -6.103000000     0.306000000    -2.865000000
O    -4.036000000    -3.682000000     1.062000000
H    -3.618000000    -4.408000000     1.525000000
H    -3.330000000    -3.287000000     0.551000000
O    -2.193000000     1.549000000    -2.822000000
H    -2.086000000     0.655000000    -3.148000000
H    -2.832000000     1.944000000    -3.415000000
O     3.484000000    -0.247000000     1.244000000
H     2.596000000    -0.015000000     0.971000000
H     4.022000000    -0.088000000     0.469000000
O     0.095000000    -7.147000000     0.017000000
H     0.503000000    -6.723000000    -0.738000000
H     0.685000000    -6.957000000     0.746000000
O    -3.329000000     4.139000000     3.026000000
H    -2.443000000     4.466000000     2.874000000
H    -3.594000000     3.767000000     2.185000000
O     5.267000000     0.938000000    -0.674000000
H     5.848000000     0.648000000    -1.377000000
H     4.687000000     1.575000000    -1.090000000
O    -1.253000000    -4.093000000    -4.500000000
H    -0.507000000    -3.901000000    -5.068000000
H    -1.123000000    -3.533000000    -3.736000000
O    -2.194000000    -0.956000000    -3.730000000
H    -1.928000000    -1.565000000    -3.042000000
H    -1.417000000    -0.862000000    -4.281000000
O     3.773000000     3.753000000     1.488000000
H     4.677000000     3.908000000     1.213000000
H     3.241000000     4.108000000     0.776000000
O    -1.165000000     5.191000000    -3.281000000
H    -1.112000000     4.804000000    -4.155000000
H    -1.346000000     6.117000000    -3.439000000
O    -0.571000000    -1.867000000     4.192000000
H     0.271000000    -1.464000000     3.981000000
H    -0.345000000    -2.740000000     4.512000000
O     4.142000000     2.980000000    -1.955000000
H     4.466000000     3.746000000    -2.429000000
H     3.595000000     3.342000000    -1.258000000
O    -7.251000000    -3.062000000    -0.132000000
H    -7.251000000    -2.916000000    -1.078000000
H    -6.326000000    -3.037000000     0.113000000
O     1.786000000    -0.946000000     3.802000000
H     2.193000000    -0.896000000     2.937000000
H     2.443000000    -1.372000000     4.352000000
O    -4.332000000     1.393000000     3.386000000
H    -4.176000000     2.186000000     3.900000000
H    -4.630000000     1.715000000     2.535000000
O     0.990000000     3.294000000    -4.179000000
H     1.884000000     2.962000000    -4.260000000
H     0.713000000     3.023000000    -3.304000000
O    -4.830000000    -1.384000000    -4.951000000
H    -4.334000000    -0.884000000    -4.303000000
H    -4.325000000    -2.188000000    -5.071000000
O     1.304000000    -6.171000000    -2.401000000
H     1.021000000    -6.270000000    -3.310000000
H     1.589000000    -5.260000000    -2.336000000
O     3.020000000     1.154000000    -3.923000000
H     3.222000000     1.782000000    -3.230000000
H     3.186000000     0.298000000    -3.527000000
