158
-3045.23476
C    -1.190000000    -0.648000000     0.552000000
H    -1.978000000    -1.089000000     1.157000000
C    -0.488000000     0.453000000     1.074000000
H    -0.832000000     0.942000000     1.981000000
C     0.652000000     0.982000000     0.491000000
H     1.174000000     1.820000000     0.979000000
C     1.176000000     0.257000000    -0.625000000
H     2.096000000     0.613000000    -1.081000000
C     0.524000000    -0.904000000    -1.101000000
H     0.970000000    -1.356000000    -1.983000000
C    -0.676000000    -1.366000000    -0.616000000
C    -1.629000000    -2.383000000    -1.220000000
O    -1.426000000    -2.822000000    -2.315000000
O    -2.621000000    -2.787000000    -0.672000000
O    -0.168000000     7.634000000    -0.329000000
H     0.394000000     8.221000000     0.177000000
H     0.034000000     6.760000000     0.005000000
O     3.585000000     3.986000000     3.598000000
H     3.993000000     4.557000000     2.946000000
H     3.008000000     3.416000000     3.089000000
O    -4.751000000    -0.772000000     0.531000000
H    -4.474000000    -1.678000000     0.393000000
H    -5.340000000    -0.588000000    -0.202000000
O    -4.068000000    -2.757000000    -6.202000000
H    -3.745000000    -2.790000000    -7.102000000
H    -3.447000000    -3.289000000    -5.705000000
O     0.743000000    -5.015000000     0.467000000
H    -0.166000000    -5.314000000     0.446000000
H     1.032000000    -5.188000000     1.363000000
O    -1.385000000    -0.122000000     5.007000000
H    -1.352000000     0.826000000     5.135000000
H    -2.202000000    -0.271000000     4.532000000
O    -5.798000000    -5.138000000     1.923000000
H    -5.011000000    -4.597000000     1.861000000
H    -5.608000000    -5.757000000     2.629000000
O    -0.471000000     4.801000000     4.689000000
H    -1.183000000     4.709000000     4.055000000
H    -0.646000000     5.634000000     5.126000000
O     0.739000000    -5.140000000    -2.486000000
H     0.969000000    -5.103000000    -1.558000000
H    -0.091000000    -4.667000000    -2.546000000
O    -4.512000000    -3.623000000    -2.237000000
H    -3.772000000    -3.312000000    -1.714000000
H    -4.615000000    -2.962000000    -2.922000000
O     2.475000000     6.970000000     2.593000000
H     2.904000000     6.300000000     2.061000000
H     2.676000000     7.794000000     2.147000000
O    -5.036000000    -6.435000000    -1.721000000
H    -5.989000000    -6.366000000    -1.668000000
H    -4.781000000    -5.756000000    -2.346000000
O     0.177000000     3.408000000    -3.041000000
H    -0.494000000     4.032000000    -3.319000000
H    -0.316000000     2.656000000    -2.713000000
O     0.320000000     5.192000000     0.974000000
H     0.995000000     5.504000000     1.576000000
H    -0.366000000     4.843000000     1.543000000
O     1.730000000    -3.295000000    -4.817000000
H     1.870000000    -3.589000000    -3.917000000
H     1.503000000    -2.369000000    -4.734000000
O    -1.981000000     2.534000000     4.755000000
H    -2.166000000     2.556000000     3.816000000
H    -1.595000000     3.389000000     4.943000000
O    -3.458000000    -6.565000000    -4.435000000
H    -2.929000000    -7.359000000    -4.521000000
H    -2.819000000    -5.852000000    -4.422000000
O     2.011000000     4.391000000    -0.960000000
H     1.661000000     4.120000000    -1.808000000
H     1.262000000     4.774000000    -0.503000000
O    -2.194000000    -5.597000000    -1.492000000
H    -3.107000000    -5.868000000    -1.586000000
H    -2.224000000    -4.640000000    -1.519000000
O    -2.675000000     2.775000000     2.066000000
H    -3.548000000     2.386000000     2.116000000
H    -2.566000000     3.001000000     1.142000000
O    -1.957000000    -6.201000000     1.958000000
H    -2.343000000    -6.319000000     1.091000000
H    -1.528000000    -7.036000000     2.145000000
O     1.696000000     3.552000000     6.083000000
H     2.229000000     3.144000000     5.400000000
H     0.867000000     3.756000000     5.649000000
O     5.461000000     2.336000000     1.001000000
H     4.990000000     2.746000000     0.276000000
H     6.381000000     2.544000000     0.837000000
O     1.515000000    -0.623000000    -4.892000000
H     1.604000000    -0.696000000    -5.843000000
H     2.338000000    -0.228000000    -4.605000000
O    -6.194000000    -0.757000000    -2.030000000
H    -5.595000000    -0.988000000    -2.739000000
H    -7.057000000    -1.018000000    -2.351000000
O     5.172000000    -0.716000000     4.081000000
H     4.465000000    -0.697000000     3.436000000
H     5.150000000     0.151000000     4.486000000
O    -3.433000000    -3.708000000     1.689000000
H    -2.815000000    -4.426000000     1.832000000
H    -3.195000000    -3.356000000     0.831000000
O    -1.509000000     1.728000000    -1.880000000
H    -1.518000000     1.274000000    -2.722000000
H    -1.489000000     1.027000000    -1.229000000
O     1.324000000    -2.663000000     2.813000000
H     1.131000000    -2.052000000     3.525000000
H     1.040000000    -2.205000000     2.022000000
O    -2.411000000     5.278000000     2.986000000
H    -2.638000000     6.062000000     2.485000000
H    -2.544000000     4.556000000     2.373000000
O     5.683000000     0.495000000    -1.561000000
H     5.840000000    -0.006000000    -0.760000000
H     5.255000000     1.297000000    -1.262000000
O    -1.821000000    -3.987000000    -4.679000000
H    -0.978000000    -4.244000000    -5.052000000
H    -1.602000000    -3.610000000    -3.827000000
O    -1.133000000    -0.440000000    -3.848000000
H    -1.236000000    -1.254000000    -3.354000000
H    -0.188000000    -0.351000000    -3.968000000
O     3.760000000     5.264000000     0.980000000
H     4.488000000     5.379000000     0.369000000
H     3.050000000     4.911000000     0.443000000
O     3.715000000     0.320000000     1.958000000
H     3.428000000     0.034000000     1.091000000
H     4.260000000     1.088000000     1.788000000
O    -6.990000000    -3.506000000    -0.244000000
H    -6.625000000    -4.131000000     0.384000000
H    -6.468000000    -3.630000000    -1.036000000
O     1.004000000    -1.402000000     5.156000000
H     0.790000000    -1.967000000     5.898000000
H     0.203000000    -0.905000000     4.994000000
O     5.279000000     2.072000000     4.695000000
H     4.752000000     2.841000000     4.481000000
H     6.181000000     2.343000000     4.521000000
O     4.618000000     3.227000000    -1.817000000
H     4.926000000     3.810000000    -2.510000000
H     3.799000000     3.622000000    -1.518000000
O    -0.194000000    -7.021000000    -4.279000000
H    -0.032000000    -6.432000000    -5.017000000
H     0.193000000    -6.574000000    -3.527000000
O     1.861000000     1.781000000     3.319000000
H     2.328000000     0.990000000     3.052000000
H     1.061000000     1.776000000     2.793000000
O    -2.597000000     1.145000000    -5.686000000
H    -2.152000000     1.001000000    -6.521000000
H    -2.155000000     0.556000000    -5.074000000
O    -4.204000000    -0.682000000     3.643000000
H    -4.065000000    -1.068000000     2.778000000
H    -4.738000000     0.094000000     3.476000000
O     1.782000000     2.686000000    -5.359000000
H     2.296000000     1.938000000    -5.052000000
H     1.289000000     2.969000000    -4.589000000
O    -4.151000000    -1.034000000    -4.001000000
H    -3.211000000    -0.893000000    -3.895000000
H    -4.234000000    -1.478000000    -4.845000000
O    -3.589000000    -4.274000000     4.597000000
H    -3.884000000    -5.184000000     4.605000000
H    -3.268000000    -4.135000000     3.706000000
O    -0.929000000    -7.982000000    -1.128000000
H    -0.054000000    -8.186000000    -1.459000000
H    -1.181000000    -7.185000000    -1.593000000
O     3.551000000     1.089000000    -3.958000000
H     3.983000000     1.507000000    -3.213000000
H     4.123000000     0.357000000    -4.187000000
