158
-3061.19237
C     0.221000000    -1.462000000     0.438000000
H     0.523000000    -2.450000000     0.775000000
C     0.647000000    -0.346000000     1.119000000
H     1.105000000    -0.419000000     2.102000000
C     0.480000000     0.945000000     0.588000000
H     0.899000000     1.759000000     1.048000000
C    -0.009000000     1.160000000    -0.691000000
H     0.016000000     2.125000000    -1.191000000
C    -0.562000000     0.046000000    -1.343000000
H    -1.003000000     0.071000000    -2.336000000
C    -0.496000000    -1.247000000    -0.751000000
C    -1.181000000    -2.393000000    -1.359000000
O    -1.590000000    -2.421000000    -2.514000000
O    -1.473000000    -3.354000000    -0.662000000
O     4.225000000     3.478000000     0.783000000
H     3.553000000     4.072000000     0.451000000
H     4.001000000     2.627000000     0.407000000
O     1.885000000    -2.962000000     3.052000000
H     0.988000000    -3.266000000     2.914000000
H     2.295000000    -3.654000000     3.572000000
O     1.744000000    -6.936000000    -0.471000000
H     1.130000000    -6.207000000    -0.386000000
H     1.390000000    -7.466000000    -1.186000000
O    -4.299000000    -6.393000000    -2.621000000
H    -4.792000000    -6.603000000    -3.415000000
H    -4.434000000    -5.454000000    -2.496000000
O    -0.220000000    -7.731000000     1.784000000
H     0.195000000    -7.770000000     2.646000000
H     0.132000000    -6.936000000     1.385000000
O     2.760000000    -4.187000000    -4.051000000
H     2.417000000    -4.937000000    -4.537000000
H     2.339000000    -3.428000000    -4.452000000
O    -2.784000000     5.262000000    -2.242000000
H    -2.483000000     6.141000000    -2.012000000
H    -2.941000000     4.835000000    -1.400000000
O     2.436000000     7.024000000     1.648000000
H     2.431000000     6.432000000     0.896000000
H     1.848000000     7.736000000     1.395000000
O     2.030000000     5.511000000    -2.553000000
H     1.316000000     5.192000000    -3.105000000
H     2.263000000     6.360000000    -2.930000000
O    -1.789000000    -6.184000000    -1.859000000
H    -1.693000000    -5.286000000    -1.542000000
H    -2.637000000    -6.193000000    -2.302000000
O    -0.539000000     4.818000000    -3.599000000
H    -0.981000000     4.671000000    -2.762000000
H    -0.885000000     5.655000000    -3.909000000
O     0.378000000     3.194000000    -5.618000000
H     0.020000000     3.188000000    -4.730000000
H     1.321000000     3.078000000    -5.497000000
O     5.067000000    -2.929000000     3.702000000
H     4.290000000    -2.564000000     4.126000000
H     5.555000000    -3.344000000     4.414000000
O    -0.491000000     4.341000000     0.368000000
H    -1.281000000     4.716000000    -0.022000000
H    -0.814000000     3.797000000     1.086000000
O    -3.913000000    -3.692000000    -2.705000000
H    -4.328000000    -3.076000000    -3.310000000
H    -3.153000000    -3.219000000    -2.366000000
O     2.071000000     4.727000000     0.055000000
H     2.106000000     5.067000000    -0.839000000
H     1.139000000     4.589000000     0.223000000
O    -3.190000000    -2.333000000    -7.371000000
H    -3.200000000    -3.275000000    -7.201000000
H    -2.701000000    -1.963000000    -6.636000000
O     0.107000000    -6.906000000    -3.566000000
H    -0.567000000    -6.705000000    -2.916000000
H     0.128000000    -6.136000000    -4.135000000
O     3.356000000     0.387000000    -0.252000000
H     2.463000000     0.550000000     0.051000000
H     3.741000000    -0.169000000     0.426000000
O     1.837000000     5.029000000     3.484000000
H     2.675000000     5.233000000     3.069000000
H     1.268000000     5.763000000     3.249000000
O     4.074000000    -1.390000000     1.770000000
H     3.291000000    -1.919000000     1.922000000
H     4.638000000    -1.576000000     2.521000000
O    -5.252000000    -1.438000000    -4.628000000
H    -4.298000000    -1.379000000    -4.670000000
H    -5.486000000    -2.039000000    -5.335000000
O     3.599000000     0.738000000     4.962000000
H     4.224000000     1.436000000     5.159000000
H     4.132000000     0.041000000     4.579000000
O    -0.054000000    -5.149000000     0.489000000
H    -0.596000000    -4.762000000    -0.199000000
H    -0.005000000    -4.472000000     1.164000000
O    -0.570000000     0.753000000    -6.249000000
H    -0.431000000     1.691000000    -6.118000000
H    -0.567000000     0.642000000    -7.200000000
O    -3.674000000    -4.178000000     0.541000000
H    -3.535000000    -5.120000000     0.631000000
H    -2.900000000    -3.865000000     0.072000000
O    -3.368000000     4.711000000     0.481000000
H    -3.890000000     5.247000000     1.078000000
H    -3.913000000     3.943000000     0.310000000
O    -2.588000000    -1.770000000     2.442000000
H    -3.446000000    -2.133000000     2.226000000
H    -2.486000000    -1.026000000     1.848000000
O    -2.848000000     0.454000000     0.821000000
H    -3.366000000     0.447000000     0.016000000
H    -1.944000000     0.554000000     0.523000000
O     2.964000000    -3.574000000    -1.451000000
H     2.811000000    -3.904000000    -2.337000000
H     2.684000000    -2.659000000    -1.485000000
O     1.002000000     0.924000000     4.544000000
H     1.913000000     0.874000000     4.834000000
H     0.612000000     0.101000000     4.838000000
O     2.042000000     4.611000000     6.203000000
H     1.980000000     4.963000000     5.315000000
H     1.250000000     4.084000000     6.307000000
O    -0.838000000    -4.239000000    -4.505000000
H    -0.134000000    -3.612000000    -4.673000000
H    -1.403000000    -3.799000000    -3.870000000
O    -4.345000000     0.989000000    -1.794000000
H    -3.860000000     1.063000000    -2.616000000
H    -5.099000000     0.440000000    -2.010000000
O    -6.281000000    -3.264000000    -0.205000000
H    -5.374000000    -2.981000000    -0.096000000
H    -6.257000000    -4.209000000    -0.053000000
O    -0.840000000     2.478000000     3.095000000
H    -0.163000000     3.148000000     3.000000000
H    -0.358000000     1.680000000     3.313000000
O     2.769000000     3.392000000    -4.180000000
H     2.607000000     3.883000000    -3.374000000
H     3.715000000     3.248000000    -4.187000000
O     2.642000000    -1.243000000    -2.335000000
H     2.324000000    -0.694000000    -3.052000000
H     2.707000000    -0.647000000    -1.588000000
O    -0.825000000    -3.614000000     2.722000000
H    -1.372000000    -2.860000000     2.503000000
H    -1.449000000    -4.310000000     2.929000000
O     5.209000000     4.487000000     3.216000000
H     4.680000000     4.026000000     2.564000000
H     5.541000000     5.257000000     2.753000000
O     1.697000000     0.338000000    -4.411000000
H     0.819000000     0.515000000    -4.747000000
H     2.106000000     1.201000000    -4.341000000
O    -0.858000000    -1.317000000     5.022000000
H    -0.879000000    -1.908000000     4.269000000
H    -1.762000000    -1.296000000     5.336000000
O    -2.571000000     1.500000000    -3.762000000
H    -2.453000000     1.120000000    -4.633000000
H    -2.883000000     2.389000000    -3.929000000
O    -2.187000000    -1.215000000    -4.932000000
H    -1.596000000    -0.519000000    -5.223000000
H    -1.863000000    -1.456000000    -4.064000000
O    -3.172000000     1.219000000     3.821000000
H    -2.442000000     1.740000000     3.487000000
H    -3.383000000     0.616000000     3.109000000
O     3.523000000    -5.093000000     0.544000000
H     3.053000000    -5.927000000     0.520000000
H     3.175000000    -4.601000000    -0.200000000
O     0.924000000    -2.339000000    -4.949000000
H     1.374000000    -1.530000000    -4.704000000
H     0.439000000    -2.112000000    -5.742000000
O    -0.359000000     2.746000000     6.150000000
H     0.105000000     2.320000000     5.430000000
H    -1.280000000     2.532000000     6.001000000
