158
-2990.53281
C    -0.008000000    -0.527000000     1.360000000
H     0.047000000    -0.852000000     2.396000000
C     0.272000000     0.770000000     0.995000000
H     0.378000000     1.520000000     1.775000000
C     0.266000000     1.144000000    -0.343000000
H     0.450000000     2.139000000    -0.674000000
C     0.058000000     0.189000000    -1.327000000
H     0.141000000     0.372000000    -2.395000000
C    -0.270000000    -1.093000000    -0.950000000
H    -0.471000000    -1.846000000    -1.707000000
C    -0.333000000    -1.451000000     0.391000000
C    -0.864000000    -2.814000000     0.743000000
O    -1.051000000    -3.718000000    -0.091000000
O    -1.074000000    -3.105000000     1.924000000
O     4.717000000     2.244000000     3.988000000
H     3.849000000     2.559000000     3.737000000
H     4.775000000     1.369000000     3.604000000
O     0.401000000    -3.918000000    -3.751000000
H     0.794000000    -3.066000000    -3.559000000
H    -0.246000000    -3.735000000    -4.432000000
O     3.699000000    -3.649000000     3.589000000
H     2.802000000    -3.921000000     3.392000000
H     3.688000000    -3.448000000     4.525000000
O     3.993000000     3.693000000    -5.693000000
H     4.599000000     3.290000000    -6.315000000
H     4.238000000     3.324000000    -4.845000000
O    -3.546000000    -7.317000000     0.338000000
H    -3.132000000    -7.735000000    -0.417000000
H    -3.103000000    -6.472000000     0.416000000
O    -1.065000000    -5.813000000     1.670000000
H    -1.323000000    -4.894000000     1.592000000
H    -0.151000000    -5.782000000     1.951000000
O     2.755000000    -7.063000000    -0.718000000
H     3.689000000    -7.203000000    -0.564000000
H     2.702000000    -6.180000000    -1.083000000
O    -3.634000000     4.734000000     0.657000000
H    -2.926000000     5.089000000     1.194000000
H    -3.978000000     5.492000000     0.184000000
O    -4.042000000     5.314000000    -2.789000000
H    -4.128000000     4.405000000    -3.077000000
H    -3.099000000     5.445000000    -2.690000000
O     2.716000000     0.283000000    -5.835000000
H     2.234000000     1.089000000    -5.652000000
H     2.036000000    -0.367000000    -6.014000000
O     1.154000000     6.298000000     1.404000000
H     0.443000000     5.867000000     1.879000000
H     0.729000000     6.686000000     0.639000000
O    -0.780000000    -6.648000000    -1.272000000
H     0.176000000    -6.692000000    -1.250000000
H    -1.017000000    -6.182000000    -0.470000000
O     4.329000000     7.017000000     0.785000000
H     3.597000000     6.814000000     0.201000000
H     5.102000000     6.977000000     0.222000000
O    -1.864000000     5.308000000     2.527000000
H    -2.240000000     4.467000000     2.786000000
H    -1.663000000     5.746000000     3.354000000
O     2.507000000     5.150000000    -0.486000000
H     1.900000000     4.962000000    -1.202000000
H     1.942000000     5.320000000     0.268000000
O     0.747000000    -1.358000000    -6.272000000
H     0.136000000    -0.713000000    -6.627000000
H     0.730000000    -2.077000000    -6.903000000
O     4.977000000     3.809000000    -0.197000000
H     4.242000000     4.348000000    -0.490000000
H     5.529000000     3.715000000    -0.972000000
O    -3.497000000    -4.419000000    -0.057000000
H    -3.879000000    -3.771000000    -0.649000000
H    -2.564000000    -4.206000000    -0.037000000
O     2.083000000     3.801000000     3.751000000
H     1.148000000     3.707000000     3.933000000
H     2.284000000     4.705000000     3.993000000
O    -0.467000000     4.131000000     4.928000000
H    -1.245000000     3.581000000     5.022000000
H    -0.812000000     5.010000000     4.772000000
O    -3.372000000    -1.852000000    -3.804000000
H    -2.913000000    -2.503000000    -3.274000000
H    -2.913000000    -1.860000000    -4.644000000
O     3.786000000    -3.142000000     0.526000000
H     3.423000000    -3.352000000     1.387000000
H     3.070000000    -3.318000000    -0.085000000
O     1.440000000    -6.683000000     2.853000000
H     1.362000000    -7.372000000     3.512000000
H     1.365000000    -5.867000000     3.349000000
O     1.487000000     2.308000000    -4.149000000
H     0.672000000     1.998000000    -4.544000000
H     1.473000000     3.256000000    -4.282000000
O    -0.180000000     1.562000000    -6.270000000
H    -0.160000000     2.312000000    -6.864000000
H    -1.092000000     1.508000000    -5.982000000
O    -3.234000000    -3.097000000     4.001000000
H    -3.120000000    -3.989000000     4.331000000
H    -2.622000000    -3.033000000     3.269000000
O    -3.044000000     0.270000000     2.855000000
H    -3.025000000     1.047000000     2.297000000
H    -2.542000000    -0.385000000     2.371000000
O     1.464000000    -4.166000000    -0.855000000
H     1.229000000    -3.955000000    -1.758000000
H     0.632000000    -4.147000000    -0.381000000
O    -4.623000000    -1.833000000    -0.643000000
H    -5.173000000    -1.740000000    -1.421000000
H    -3.978000000    -1.130000000    -0.721000000
O     1.204000000     1.079000000     4.745000000
H     1.322000000     0.838000000     3.826000000
H     2.081000000     1.014000000     5.124000000
O     3.383000000     1.613000000     1.018000000
H     2.590000000     1.942000000     0.596000000
H     4.058000000     2.254000000     0.792000000
O     1.157000000     7.705000000    -1.108000000
H     1.802000000     8.343000000    -1.413000000
H     1.135000000     7.040000000    -1.796000000
O    -3.502000000     2.809000000    -1.459000000
H    -4.435000000     3.020000000    -1.494000000
H    -3.159000000     3.356000000    -0.753000000
O     0.972000000    -4.070000000     3.588000000
H     0.303000000    -3.725000000     2.997000000
H     0.533000000    -4.133000000     4.436000000
O    -1.225000000    -8.134000000     3.550000000
H    -1.684000000    -8.774000000     3.005000000
H    -0.918000000    -7.470000000     2.933000000
O    -2.547000000     3.312000000    -5.710000000
H    -3.419000000     3.088000000    -5.386000000
H    -1.986000000     3.272000000    -4.935000000
O     3.598000000    -0.496000000    -1.210000000
H     2.765000000    -0.868000000    -1.500000000
H     3.449000000    -0.260000000    -0.294000000
O    -1.520000000     2.600000000    -3.349000000
H    -2.188000000     2.791000000    -2.691000000
H    -0.933000000     1.977000000    -2.922000000
O    -2.929000000     0.221000000    -0.170000000
H    -2.027000000     0.268000000     0.147000000
H    -3.104000000     1.093000000    -0.525000000
O    -2.369000000    -4.269000000    -2.642000000
H    -1.919000000    -4.944000000    -3.151000000
H    -1.983000000    -4.330000000    -1.769000000
O    -1.575000000     6.250000000    -2.449000000
H    -1.764000000     7.187000000    -2.391000000
H    -0.763000000     6.201000000    -2.954000000
O    -2.106000000     1.945000000     5.723000000
H    -2.867000000     2.316000000     5.276000000
H    -1.880000000     1.170000000     5.208000000
O    -0.526000000    -4.693000000     5.645000000
H    -1.363000000    -4.693000000     6.110000000
H     0.129000000    -4.815000000     6.331000000
O    -2.615000000    -1.380000000     6.172000000
H    -2.783000000    -1.712000000     5.290000000
H    -3.464000000    -1.427000000     6.611000000
O     1.414000000     5.624000000    -3.045000000
H     2.284000000     5.988000000    -2.879000000
H     1.427000000     5.386000000    -3.971000000
O    -3.362000000    -6.027000000     3.924000000
H    -3.566000000    -6.765000000     4.498000000
H    -2.512000000    -6.246000000     3.544000000
O     1.689000000    -1.343000000    -3.326000000
H     2.618000000    -1.555000000    -3.419000000
H     1.421000000    -1.054000000    -4.199000000
O     0.289000000     0.032000000     7.130000000
H    -0.537000000     0.413000000     7.426000000
H     0.534000000     0.555000000     6.366000000
