158
-3008.64633
C     1.140000000    -0.563000000    -0.584000000
H     1.996000000    -0.892000000    -1.166000000
C     0.961000000     0.784000000    -0.527000000
H     1.597000000     1.466000000    -1.085000000
C    -0.260000000     1.221000000    -0.040000000
H    -0.564000000     2.249000000     0.055000000
C    -1.086000000     0.306000000     0.685000000
H    -2.019000000     0.602000000     1.158000000
C    -0.730000000    -1.009000000     0.738000000
H    -1.412000000    -1.783000000     1.081000000
C     0.388000000    -1.462000000     0.057000000
C     0.734000000    -2.963000000     0.086000000
O     0.182000000    -3.733000000     0.795000000
O     1.729000000    -3.242000000    -0.566000000
O    -0.297000000     2.924000000     4.615000000
H     0.001000000     3.828000000     4.710000000
H     0.380000000     2.402000000     5.045000000
O    -1.962000000    -4.900000000    -0.193000000
H    -1.038000000    -4.836000000     0.050000000
H    -2.199000000    -4.015000000    -0.469000000
O    -1.154000000     4.514000000     0.929000000
H    -0.702000000     4.331000000     0.106000000
H    -0.513000000     4.996000000     1.452000000
O    -2.872000000    -6.991000000    -1.504000000
H    -3.534000000    -7.391000000    -0.939000000
H    -2.529000000    -6.260000000    -0.991000000
O     5.648000000    -2.023000000    -0.164000000
H     6.358000000    -1.795000000    -0.764000000
H     5.012000000    -2.485000000    -0.710000000
O     1.611000000     5.533000000     0.547000000
H     2.050000000     6.222000000     1.046000000
H     1.502000000     5.903000000    -0.329000000
O     3.001000000    -2.786000000     1.828000000
H     2.250000000    -2.906000000     2.409000000
H     2.703000000    -3.115000000     0.980000000
O    -4.356000000     0.996000000    -3.424000000
H    -4.100000000     1.458000000    -4.222000000
H    -3.544000000     0.914000000    -2.923000000
O    -2.455000000     2.933000000     2.861000000
H    -1.633000000     2.840000000     3.342000000
H    -2.270000000     3.599000000     2.198000000
O     3.894000000    -2.987000000    -1.881000000
H     3.031000000    -2.837000000    -1.495000000
H     3.886000000    -3.910000000    -2.134000000
O    -2.598000000    -2.243000000    -1.565000000
H    -2.518000000    -1.443000000    -2.085000000
H    -3.474000000    -2.573000000    -1.767000000
O    -0.420000000     6.157000000     3.005000000
H    -1.242000000     6.061000000     3.486000000
H     0.260000000     6.074000000     3.673000000
O    -4.500000000     0.027000000     1.786000000
H    -5.053000000    -0.144000000     1.023000000
H    -4.127000000     0.893000000     1.621000000
O    -6.134000000     3.992000000    -0.197000000
H    -6.453000000     4.089000000    -1.094000000
H    -5.501000000     4.702000000    -0.089000000
O    -0.700000000     3.969000000    -5.286000000
H    -0.668000000     4.401000000    -4.433000000
H    -0.175000000     4.529000000    -5.858000000
O    -0.273000000    -5.567000000    -4.921000000
H    -1.103000000    -6.011000000    -4.748000000
H    -0.011000000    -5.209000000    -4.072000000
O     2.863000000     1.138000000     2.943000000
H     3.622000000     1.496000000     3.404000000
H     2.375000000     1.908000000     2.652000000
O     0.178000000     1.002000000    -4.399000000
H     1.039000000     1.342000000    -4.156000000
H    -0.316000000     1.775000000    -4.671000000
O     2.195000000    -7.726000000    -2.172000000
H     1.672000000    -7.116000000    -1.651000000
H     1.549000000    -8.266000000    -2.627000000
O    -3.022000000     7.146000000     0.707000000
H    -3.484000000     7.200000000     1.544000000
H    -2.592000000     6.291000000     0.725000000
O    -2.923000000    -4.242000000     2.461000000
H    -3.280000000    -5.127000000     2.544000000
H    -2.728000000    -4.149000000     1.529000000
O     0.377000000    -1.680000000    -4.343000000
H     0.238000000    -0.735000000    -4.277000000
H    -0.391000000    -2.003000000    -4.814000000
O    -2.568000000     3.513000000    -2.300000000
H    -2.624000000     2.632000000    -2.671000000
H    -3.018000000     3.447000000    -1.458000000
O     4.250000000     4.361000000     1.913000000
H     3.972000000     5.116000000     2.430000000
H     3.592000000     3.690000000     2.094000000
O     0.720000000    -0.571000000     3.251000000
H     1.525000000    -0.060000000     3.161000000
H     0.304000000    -0.516000000     2.390000000
O     2.830000000     1.740000000    -3.876000000
H     3.376000000     1.073000000    -3.461000000
H     3.127000000     2.566000000    -3.494000000
O    -1.377000000    -5.228000000     5.252000000
H    -1.082000000    -4.793000000     4.452000000
H    -2.317000000    -5.053000000     5.287000000
O    -1.897000000     0.490000000    -2.631000000
H    -1.352000000     0.255000000    -1.880000000
H    -1.289000000     0.519000000    -3.369000000
O    -0.609000000     5.545000000    -2.551000000
H    -1.309000000     4.918000000    -2.372000000
H    -1.015000000     6.203000000    -3.116000000
O     4.573000000    -6.529000000    -0.452000000
H     3.823000000    -6.251000000     0.073000000
H     5.302000000    -6.559000000     0.168000000
O     0.307000000    -3.252000000     3.475000000
H    -0.174000000    -3.245000000     2.647000000
H     0.348000000    -2.332000000     3.736000000
O    -0.307000000    -0.110000000     5.609000000
H     0.069000000    -0.248000000     4.740000000
H    -1.117000000     0.373000000     5.446000000
O    -4.627000000    -2.148000000     3.355000000
H    -4.266000000    -2.929000000     2.935000000
H    -4.635000000    -1.486000000     2.664000000
O     3.018000000    -1.664000000    -5.405000000
H     3.194000000    -0.759000000    -5.664000000
H     2.132000000    -1.641000000    -5.044000000
O     1.638000000     3.505000000     2.374000000
H     1.580000000     4.148000000     1.667000000
H     0.954000000     3.766000000     2.991000000
O     4.887000000    -3.925000000     3.382000000
H     4.494000000    -3.321000000     2.751000000
H     4.183000000    -4.112000000     4.004000000
O    -0.958000000    -6.647000000     2.106000000
H    -0.652000000    -6.159000000     1.341000000
H    -1.875000000    -6.390000000     2.203000000
O     4.221000000    -0.317000000    -2.926000000
H     4.773000000    -0.276000000    -2.145000000
H     4.214000000    -1.243000000    -3.166000000
O     4.553000000     4.020000000    -4.011000000
H     4.976000000     3.491000000    -3.336000000
H     5.224000000     4.129000000    -4.686000000
O    -4.072000000     2.235000000    -0.319000000
H    -4.728000000     1.816000000    -0.877000000
H    -4.574000000     2.597000000     0.411000000
O    -3.078000000     0.087000000     4.595000000
H    -2.912000000     0.802000000     3.981000000
H    -3.518000000    -0.582000000     4.071000000
O     0.639000000    -4.230000000    -2.820000000
H     1.215000000    -3.895000000    -2.133000000
H     0.275000000    -3.446000000    -3.231000000
O     5.682000000    -0.586000000     1.981000000
H     5.747000000    -0.974000000     1.109000000
H     4.741000000    -0.533000000     2.150000000
O     2.325000000    -5.823000000     1.143000000
H     1.792000000    -5.083000000     0.852000000
H     2.386000000    -5.716000000     2.092000000
O     1.146000000    -8.360000000     2.520000000
H     1.339000000    -8.577000000     1.608000000
H     0.403000000    -7.759000000     2.471000000
O     3.087000000    -5.483000000    -3.715000000
H     2.184000000    -5.380000000    -4.016000000
H     3.084000000    -6.306000000    -3.225000000
O     1.558000000     6.722000000    -2.046000000
H     1.007000000     7.476000000    -2.254000000
H     0.987000000     5.965000000    -2.176000000
O     2.536000000    -4.672000000     4.378000000
H     2.531000000    -5.629000000     4.386000000
H     1.658000000    -4.430000000     4.083000000
