158
-3021.46069
C     0.294000000     0.861000000    -1.131000000
H     0.592000000     1.412000000    -2.019000000
C     0.515000000    -0.511000000    -1.064000000
H     0.933000000    -1.119000000    -1.862000000
C     0.112000000    -1.206000000     0.011000000
H     0.342000000    -2.285000000     0.071000000
C    -0.418000000    -0.558000000     1.121000000
H    -0.762000000    -1.086000000     2.007000000
C    -0.532000000     0.859000000     1.121000000
H    -0.916000000     1.453000000     1.947000000
C    -0.214000000     1.564000000    -0.056000000
C    -0.207000000     3.033000000    -0.065000000
O    -0.896000000     3.660000000     0.747000000
O     0.172000000     3.671000000    -1.048000000
O     1.938000000     0.394000000    -5.596000000
H     2.546000000     0.162000000    -6.298000000
H     2.141000000     1.307000000    -5.395000000
O     5.702000000    -3.300000000     2.206000000
H     6.122000000    -3.003000000     3.013000000
H     4.886000000    -3.708000000     2.496000000
O    -2.536000000     6.073000000    -4.619000000
H    -2.955000000     6.920000000    -4.465000000
H    -1.780000000     6.069000000    -4.032000000
O    -4.750000000    -0.143000000     1.715000000
H    -5.520000000     0.157000000     2.200000000
H    -4.904000000    -1.077000000     1.575000000
O    -0.360000000     3.234000000    -6.712000000
H    -0.239000000     3.406000000    -5.778000000
H    -0.695000000     4.058000000    -7.066000000
O    -0.477000000    -0.519000000    -5.153000000
H    -1.029000000     0.248000000    -4.998000000
H     0.411000000    -0.216000000    -4.962000000
O     3.848000000     0.550000000    -2.412000000
H     3.416000000    -0.071000000    -2.999000000
H     3.640000000     0.232000000    -1.534000000
O    -3.316000000     1.868000000     0.282000000
H    -3.641000000     1.129000000     0.796000000
H    -2.778000000     2.369000000     0.895000000
O     3.299000000    -4.903000000     0.410000000
H     2.803000000    -5.039000000    -0.397000000
H     4.210000000    -5.056000000     0.160000000
O    -4.360000000     3.568000000    -1.799000000
H    -4.806000000     2.728000000    -1.904000000
H    -3.516000000     3.343000000    -1.408000000
O    -1.560000000     6.177000000    -0.137000000
H    -1.460000000     5.242000000     0.043000000
H    -2.491000000     6.350000000     0.006000000
O    -4.430000000    -3.307000000     1.339000000
H    -3.829000000    -3.516000000     0.623000000
H    -4.660000000    -4.156000000     1.715000000
O    -2.029000000    -2.179000000    -2.845000000
H    -2.334000000    -1.326000000    -2.538000000
H    -1.216000000    -1.988000000    -3.315000000
O    -0.574000000     0.601000000     5.349000000
H    -0.571000000    -0.350000000     5.460000000
H    -1.473000000     0.862000000     5.552000000
O     0.294000000    -6.877000000    -3.442000000
H     0.382000000    -7.584000000    -2.802000000
H    -0.264000000    -6.230000000    -3.009000000
O    -0.392000000    -5.604000000     2.678000000
H    -0.560000000    -5.831000000     3.592000000
H     0.469000000    -5.185000000     2.690000000
O     0.359000000     8.187000000     0.452000000
H    -0.565000000     8.059000000     0.666000000
H     0.788000000     7.387000000     0.755000000
O     1.183000000     4.153000000     5.308000000
H     0.596000000     4.447000000     4.611000000
H     2.027000000     4.030000000     4.874000000
O    -0.530000000     6.358000000    -2.630000000
H    -0.802000000     6.208000000    -1.724000000
H     0.347000000     5.980000000    -2.683000000
O     3.907000000    -0.789000000    -0.134000000
H     3.138000000    -0.605000000     0.405000000
H     4.239000000    -1.623000000     0.198000000
O     1.456000000    -2.566000000    -6.876000000
H     1.046000000    -3.316000000    -6.446000000
H     1.241000000    -1.821000000    -6.315000000
O     1.997000000     5.045000000    -2.260000000
H     2.398000000     5.405000000    -1.469000000
H     1.315000000     4.456000000    -1.937000000
O    -3.254000000    -0.411000000     4.093000000
H    -3.299000000    -1.323000000     4.380000000
H    -3.258000000    -0.460000000     3.137000000
O     3.327000000     2.985000000     1.306000000
H     3.222000000     2.038000000     1.401000000
H     3.610000000     3.105000000     0.400000000
O     3.173000000    -1.828000000    -3.684000000
H     2.361000000    -2.326000000    -3.583000000
H     3.525000000    -2.112000000    -4.528000000
O     3.508000000     0.004000000     5.162000000
H     3.207000000    -0.825000000     5.533000000
H     2.754000000     0.338000000     4.677000000
O     2.412000000     0.227000000     1.813000000
H     1.756000000    -0.448000000     1.985000000
H     2.185000000     0.939000000     2.411000000
O     2.722000000    -7.788000000    -1.796000000
H     3.121000000    -6.940000000    -1.994000000
H     3.464000000    -8.371000000    -1.639000000
O    -0.263000000     3.329000000    -3.750000000
H    -0.213000000     3.381000000    -2.795000000
H    -1.126000000     2.954000000    -3.924000000
O    -3.035000000    -3.990000000    -0.978000000
H    -2.294000000    -4.542000000    -0.727000000
H    -2.682000000    -3.406000000    -1.650000000
O     3.580000000     6.005000000    -0.136000000
H     3.879000000     6.712000000     0.436000000
H     3.475000000     5.254000000     0.448000000
O     2.415000000    -4.781000000     2.769000000
H     2.823000000    -4.666000000     1.911000000
H     2.038000000    -3.925000000     2.972000000
O     2.509000000     2.979000000    -4.753000000
H     1.656000000     3.055000000    -4.325000000
H     2.895000000     3.851000000    -4.673000000
O     5.728000000    -3.029000000    -2.678000000
H     5.086000000    -2.364000000    -2.927000000
H     6.042000000    -2.750000000    -1.818000000
O     1.133000000     1.718000000     3.698000000
H     1.020000000     2.651000000     3.880000000
H     0.535000000     1.281000000     4.305000000
O    -1.146000000    -5.768000000     0.060000000
H    -0.889000000    -5.772000000     0.982000000
H    -1.967000000    -6.259000000     0.039000000
O     1.672000000    -7.796000000     2.112000000
H     1.874000000    -6.896000000     2.367000000
H     2.388000000    -8.045000000     1.526000000
O    -1.046000000    -1.975000000     5.657000000
H    -1.874000000    -2.444000000     5.559000000
H    -0.699000000    -2.273000000     6.498000000
O    -2.963000000     2.646000000     3.592000000
H    -3.094000000     1.701000000     3.662000000
H    -3.830000000     2.994000000     3.384000000
O    -2.061000000     6.986000000     3.175000000
H    -1.523000000     6.200000000     3.271000000
H    -2.452000000     7.115000000     4.039000000
O    -2.872000000    -0.081000000    -1.470000000
H    -2.074000000    -0.179000000    -0.950000000
H    -3.445000000     0.463000000    -0.929000000
O     1.250000000    -2.542000000     3.729000000
H     0.315000000    -2.662000000     3.895000000
H     1.625000000    -2.364000000     4.591000000
O     0.759000000     5.749000000    -5.189000000
H     0.447000000     5.006000000    -4.672000000
H     1.703000000     5.769000000    -5.035000000
O     1.048000000    -3.443000000    -3.524000000
H     0.421000000    -4.059000000    -3.904000000
H     1.205000000    -3.776000000    -2.640000000
O     4.048000000     3.027000000    -1.333000000
H     4.334000000     2.202000000    -1.723000000
H     3.417000000     3.383000000    -1.959000000
O    -0.789000000     4.196000000     3.218000000
H    -0.721000000     4.062000000     2.272000000
H    -1.466000000     3.581000000     3.499000000
O    -1.586000000    -4.816000000    -3.484000000
H    -1.795000000    -3.894000000    -3.631000000
H    -1.310000000    -5.138000000    -4.342000000
O     0.796000000    -5.085000000    -1.262000000
H     1.069000000    -5.967000000    -1.515000000
H    -0.023000000    -5.215000000    -0.784000000
