158
-3021.01769
C     0.546000000    -0.405000000    -1.275000000
H     0.919000000    -0.521000000    -2.289000000
C     0.100000000     0.851000000    -0.947000000
H     0.253000000     1.625000000    -1.694000000
C    -0.498000000     1.133000000     0.271000000
H    -0.876000000     2.123000000     0.518000000
C    -0.567000000     0.092000000     1.188000000
H    -0.999000000     0.270000000     2.170000000
C    -0.094000000    -1.219000000     0.893000000
H    -0.017000000    -2.012000000     1.632000000
C     0.501000000    -1.473000000    -0.374000000
C     1.134000000    -2.845000000    -0.759000000
O     0.693000000    -3.855000000    -0.203000000
O     2.038000000    -2.847000000    -1.592000000
O     2.012000000    -6.800000000    -3.282000000
H     1.945000000    -6.960000000    -4.223000000
H     1.748000000    -7.627000000    -2.878000000
O    -3.012000000    -4.249000000    -1.842000000
H    -3.127000000    -4.932000000    -1.181000000
H    -3.318000000    -3.448000000    -1.415000000
O    -3.779000000     1.883000000     5.473000000
H    -4.272000000     2.533000000     5.973000000
H    -3.335000000     1.356000000     6.138000000
O    -1.617000000     4.482000000     1.012000000
H    -2.176000000     5.188000000     0.688000000
H    -2.202000000     3.934000000     1.536000000
O     2.495000000     1.662000000     1.236000000
H     1.646000000     1.234000000     1.121000000
H     2.642000000     2.127000000     0.412000000
O    -0.239000000     4.300000000     6.165000000
H    -0.505000000     3.468000000     6.557000000
H     0.175000000     4.781000000     6.882000000
O     1.363000000     6.119000000    -2.577000000
H     2.142000000     5.919000000    -3.096000000
H     1.554000000     6.967000000    -2.176000000
O     3.208000000    -1.856000000    -3.708000000
H     2.370000000    -1.576000000    -4.076000000
H     2.974000000    -2.321000000    -2.905000000
O    -2.596000000    -0.250000000    -2.013000000
H    -1.832000000    -0.121000000    -1.451000000
H    -3.172000000    -0.823000000    -1.507000000
O    -5.000000000     2.311000000     0.845000000
H    -4.754000000     2.518000000    -0.056000000
H    -4.414000000     2.845000000     1.382000000
O     4.063000000     2.887000000     3.137000000
H     3.369000000     2.523000000     2.588000000
H     3.604000000     3.446000000     3.764000000
O    -4.988000000     0.353000000     3.643000000
H    -4.827000000     0.872000000     2.855000000
H    -4.525000000     0.822000000     4.337000000
O    -1.608000000     5.676000000     4.476000000
H    -2.003000000     5.008000000     3.916000000
H    -1.078000000     5.182000000     5.102000000
O     0.075000000     3.567000000    -4.752000000
H     0.984000000     3.474000000    -5.036000000
H    -0.442000000     3.281000000    -5.506000000
O    -0.307000000    -5.943000000    -1.869000000
H    -0.407000000    -5.147000000    -1.348000000
H     0.533000000    -5.832000000    -2.316000000
O    -4.034000000     2.100000000    -1.766000000
H    -3.519000000     1.369000000    -2.107000000
H    -3.847000000     2.824000000    -2.363000000
O    -1.525000000    -4.099000000     1.396000000
H    -1.955000000    -4.910000000     1.125000000
H    -0.768000000    -4.024000000     0.816000000
O     2.830000000     2.911000000    -1.159000000
H     2.922000000     2.541000000    -2.038000000
H     1.986000000     3.361000000    -1.176000000
O     3.893000000     0.709000000    -3.533000000
H     4.843000000     0.598000000    -3.571000000
H     3.547000000    -0.183000000    -3.541000000
O    -3.376000000    -5.987000000     0.609000000
H    -3.440000000    -6.626000000     1.319000000
H    -4.223000000    -5.542000000     0.610000000
O    -1.827000000    -2.271000000    -3.949000000
H    -2.157000000    -1.463000000    -3.556000000
H    -1.493000000    -2.778000000    -3.208000000
O     6.345000000    -4.210000000    -2.959000000
H     5.902000000    -4.198000000    -3.807000000
H     5.782000000    -4.748000000    -2.402000000
O     0.999000000    -5.511000000     5.036000000
H     0.331000000    -4.861000000     4.819000000
H     1.452000000    -5.146000000     5.796000000
O    -1.934000000     3.731000000    -2.244000000
H    -1.652000000     3.412000000    -1.387000000
H    -1.251000000     3.435000000    -2.846000000
O    -1.803000000    -7.805000000    -0.418000000
H    -1.177000000    -7.152000000    -0.733000000
H    -2.443000000    -7.300000000     0.084000000
O     4.007000000    -1.713000000    -0.050000000
H     3.873000000    -1.387000000     0.839000000
H     3.186000000    -1.519000000    -0.503000000
O     2.646000000     2.603000000    -5.310000000
H     2.983000000     2.286000000    -4.472000000
H     2.496000000     1.809000000    -5.823000000
O    -0.967000000    -0.461000000     4.606000000
H    -1.090000000     0.285000000     5.193000000
H    -1.683000000    -0.389000000     3.974000000
O     0.975000000     6.776000000     1.593000000
H     1.218000000     5.858000000     1.477000000
H     1.697000000     7.153000000     2.096000000
O     6.907000000    -2.791000000     1.391000000
H     7.697000000    -3.176000000     1.010000000
H     6.232000000    -2.921000000     0.724000000
O     6.383000000    -1.759000000    -1.563000000
H     5.479000000    -1.873000000    -1.270000000
H     6.514000000    -2.452000000    -2.211000000
O     1.842000000    -0.471000000     5.058000000
H     1.822000000    -0.240000000     5.986000000
H     0.925000000    -0.447000000     4.785000000
O    -0.221000000    -7.385000000     2.618000000
H    -1.000000000    -7.903000000     2.823000000
H    -0.229000000    -6.676000000     3.260000000
O    -0.846000000    -3.694000000     4.415000000
H    -1.180000000    -3.855000000     3.532000000
H    -0.651000000    -2.758000000     4.430000000
O     4.653000000    -3.633000000    -5.161000000
H     4.844000000    -3.087000000    -5.923000000
H     4.164000000    -3.058000000    -4.571000000
O     0.605000000     4.268000000    -0.780000000
H     0.567000000     5.053000000    -1.327000000
H    -0.050000000     4.419000000    -0.098000000
O     3.142000000    -0.769000000     2.443000000
H     3.183000000     0.184000000     2.370000000
H     2.645000000    -0.926000000     3.246000000
O     1.763000000    -6.091000000     0.730000000
H     1.471000000    -5.244000000     0.393000000
H     1.059000000    -6.371000000     1.315000000
O     4.781000000    -6.848000000    -2.708000000
H     4.380000000    -6.988000000    -3.566000000
H     4.097000000    -6.422000000    -2.191000000
O    -0.970000000     6.370000000    -4.299000000
H    -0.186000000     5.978000000    -3.916000000
H    -1.287000000     6.975000000    -3.629000000
O     1.260000000    -3.950000000    -4.197000000
H     1.340000000    -3.588000000    -3.315000000
H     2.118000000    -4.336000000    -4.376000000
O     4.124000000    -4.630000000    -0.917000000
H     3.474000000    -3.977000000    -1.178000000
H     4.148000000    -4.575000000     0.038000000
O     2.690000000    -8.651000000    -0.191000000
H     2.218000000    -8.615000000    -1.023000000
H     2.603000000    -7.770000000     0.172000000
O    -3.276000000     3.258000000     2.998000000
H    -4.147000000     3.614000000     3.172000000
H    -3.089000000     2.702000000     3.754000000
O    -2.663000000     6.171000000    -1.842000000
H    -3.558000000     6.212000000    -1.504000000
H    -2.512000000     5.241000000    -2.009000000
O    -3.566000000    -1.982000000    -0.095000000
H    -4.512000000    -2.127000000    -0.111000000
H    -3.335000000    -2.007000000     0.834000000
O     3.707000000     5.733000000     0.236000000
H     4.414000000     5.918000000    -0.383000000
H     3.157000000     5.092000000    -0.214000000
O     4.234000000    -4.919000000     1.870000000
H     3.460000000    -5.478000000     1.939000000
H     4.176000000    -4.335000000     2.626000000
