158
-3019.96002
C     1.192000000     0.941000000     0.041000000
H     2.004000000     1.633000000     0.251000000
C    -0.072000000     1.096000000     0.725000000
H    -0.147000000     1.903000000     1.449000000
C    -1.070000000     0.136000000     0.586000000
H    -2.001000000     0.316000000     1.050000000
C    -0.830000000    -1.012000000    -0.129000000
H    -1.560000000    -1.818000000    -0.105000000
C     0.346000000    -1.140000000    -0.904000000
H     0.470000000    -2.044000000    -1.495000000
C     1.393000000    -0.178000000    -0.831000000
C     2.630000000    -0.326000000    -1.681000000
O     2.607000000    -1.171000000    -2.539000000
O     3.645000000     0.360000000    -1.487000000
O    -5.335000000    -0.488000000     2.624000000
H    -5.427000000    -0.166000000     1.728000000
H    -4.604000000    -1.104000000     2.584000000
O     0.832000000     4.531000000     2.489000000
H     1.238000000     3.759000000     2.885000000
H    -0.095000000     4.457000000     2.715000000
O     5.391000000    -3.619000000     0.877000000
H     4.454000000    -3.425000000     0.861000000
H     5.774000000    -2.908000000     1.393000000
O    -2.217000000     4.673000000     2.777000000
H    -2.400000000     3.803000000     2.422000000
H    -2.747000000     5.265000000     2.243000000
O    -2.915000000    -4.042000000    -0.721000000
H    -2.273000000    -3.923000000    -1.421000000
H    -3.027000000    -4.990000000    -0.657000000
O     7.752000000    -2.741000000    -1.141000000
H     8.212000000    -2.868000000    -1.970000000
H     6.849000000    -2.549000000    -1.394000000
O    -2.446000000    -2.243000000    -3.687000000
H    -3.179000000    -1.876000000    -3.193000000
H    -2.851000000    -2.641000000    -4.458000000
O     5.246000000     2.007000000    -3.086000000
H     5.990000000     1.766000000    -2.534000000
H     4.510000000     1.514000000    -2.724000000
O     6.091000000    -1.331000000     2.360000000
H     6.131000000    -0.773000000     3.137000000
H     5.456000000    -0.899000000     1.788000000
O     1.659000000     2.448000000     4.006000000
H     1.315000000     1.561000000     4.110000000
H     2.274000000     2.553000000     4.731000000
O    -5.923000000     2.426000000     5.401000000
H    -6.848000000     2.563000000     5.607000000
H    -5.805000000     2.838000000     4.545000000
O     1.849000000    -0.196000000     3.220000000
H     0.971000000    -0.476000000     2.961000000
H     2.387000000    -0.984000000     3.137000000
O     4.346000000     1.035000000     2.941000000
H     4.385000000     1.389000000     2.053000000
H     3.430000000     0.782000000     3.058000000
O    -1.476000000    -4.602000000    -2.956000000
H    -1.611000000    -3.784000000    -3.433000000
H    -1.340000000    -5.258000000    -3.639000000
O    -2.280000000     3.253000000    -1.032000000
H    -1.485000000     3.249000000    -0.499000000
H    -2.207000000     4.045000000    -1.564000000
O     1.742000000     1.344000000    -6.183000000
H     2.410000000     1.988000000    -6.420000000
H     2.239000000     0.586000000    -5.875000000
O    -3.509000000    -0.096000000    -1.982000000
H    -4.171000000    -0.635000000    -1.548000000
H    -3.156000000     0.457000000    -1.284000000
O    -3.322000000     1.107000000     4.700000000
H    -3.535000000     1.720000000     3.996000000
H    -3.993000000     0.428000000     4.639000000
O     3.110000000     4.396000000    -1.675000000
H     3.707000000     3.668000000    -1.851000000
H     2.909000000     4.754000000    -2.540000000
O    -4.825000000     0.751000000    -4.220000000
H    -5.780000000     0.695000000    -4.187000000
H    -4.533000000     0.354000000    -3.400000000
O    -0.641000000     1.100000000    -2.850000000
H    -0.304000000     0.938000000    -1.968000000
H    -1.577000000     0.906000000    -2.788000000
O    -7.076000000    -1.262000000     4.633000000
H    -6.727000000    -0.806000000     3.867000000
H    -6.599000000    -0.887000000     5.373000000
O     0.382000000    -5.414000000    -1.085000000
H    -0.482000000    -5.453000000    -1.495000000
H     0.919000000    -4.919000000    -1.705000000
O     4.626000000     1.844000000     0.505000000
H     5.552000000     2.054000000     0.380000000
H     4.336000000     1.523000000    -0.349000000
O     3.482000000     6.370000000     0.121000000
H     3.247000000     5.673000000    -0.492000000
H     4.411000000     6.531000000    -0.045000000
O    -2.346000000     1.400000000     7.378000000
H    -1.589000000     0.815000000     7.402000000
H    -2.518000000     1.531000000     6.446000000
O    -7.740000000     0.383000000    -1.118000000
H    -8.193000000    -0.208000000    -0.517000000
H    -6.979000000     0.689000000    -0.624000000
O     0.989000000    -3.180000000    -6.296000000
H     0.585000000    -2.369000000    -5.987000000
H     0.417000000    -3.479000000    -7.003000000
O    -5.512000000     4.089000000     2.987000000
H    -5.970000000     4.835000000     2.599000000
H    -4.645000000     4.102000000     2.581000000
O    -0.449000000    -5.073000000     1.526000000
H     0.119000000    -4.989000000     0.760000000
H    -1.332000000    -5.145000000     1.162000000
O     3.968000000     4.102000000     2.542000000
H     4.210000000     3.967000000     1.626000000
H     3.131000000     3.647000000     2.638000000
O     7.203000000     1.434000000    -0.927000000
H     7.827000000     0.823000000    -1.318000000
H     7.748000000     2.119000000    -0.540000000
O     0.052000000    -1.044000000    -4.579000000
H    -0.093000000    -0.116000000    -4.396000000
H    -0.781000000    -1.464000000    -4.364000000
O     5.355000000     3.092000000    -5.714000000
H     5.144000000     2.620000000    -4.909000000
H     6.238000000     2.799000000    -5.939000000
O     5.656000000    -1.324000000    -2.472000000
H     4.770000000    -1.517000000    -2.163000000
H     5.658000000    -0.378000000    -2.617000000
O    -6.293000000     1.595000000     0.517000000
H    -6.763000000     1.562000000     1.350000000
H    -6.526000000     2.446000000     0.145000000
O    -1.387000000     5.837000000    -1.670000000
H    -0.628000000     5.426000000    -1.257000000
H    -1.319000000     6.761000000    -1.430000000
O     0.841000000    -3.961000000     3.674000000
H     0.677000000    -4.296000000     2.792000000
H    -0.031000000    -3.816000000     4.041000000
O     6.277000000    -3.985000000    -3.922000000
H     5.990000000    -3.175000000    -3.498000000
H     6.620000000    -3.703000000    -4.769000000
O     0.496000000     4.255000000    -0.327000000
H     1.409000000     4.382000000    -0.587000000
H     0.478000000     4.483000000     0.602000000
O    -3.552000000     2.637000000     1.210000000
H    -3.174000000     3.016000000     0.417000000
H    -4.423000000     2.344000000     0.944000000
O     3.354000000    -5.231000000    -2.759000000
H     2.706000000    -4.542000000    -2.904000000
H     4.191000000    -4.822000000    -2.978000000
O    -4.715000000    -2.057000000    -0.342000000
H    -4.110000000    -2.768000000    -0.552000000
H    -5.510000000    -2.499000000    -0.043000000
O     3.178000000    -0.920000000    -5.093000000
H     3.054000000    -1.246000000    -4.202000000
H     3.541000000    -1.665000000    -5.573000000
O     1.567000000    -3.281000000    -3.626000000
H     0.753000000    -3.383000000    -4.120000000
H     1.593000000    -2.352000000    -3.396000000
O     3.412000000    -1.796000000     0.795000000
H     3.080000000    -0.900000000     0.850000000
H     2.928000000    -2.187000000     0.068000000
O    -1.808000000    -3.904000000     4.393000000
H    -2.498000000    -3.795000000     3.738000000
H    -2.278000000    -4.068000000     5.211000000
O    -3.871000000    -3.001000000     2.476000000
H    -3.468000000    -3.021000000     1.607000000
H    -4.811000000    -3.064000000     2.305000000
