158
-3045.38130
C     0.976000000     1.128000000    -0.148000000
H     1.640000000     1.989000000    -0.117000000
C    -0.391000000     1.256000000     0.147000000
H    -0.818000000     2.227000000     0.384000000
C    -1.179000000     0.118000000     0.160000000
H    -2.255000000     0.210000000     0.344000000
C    -0.711000000    -1.133000000    -0.114000000
H    -1.300000000    -2.047000000    -0.127000000
C     0.612000000    -1.246000000    -0.388000000
H     0.987000000    -2.223000000    -0.683000000
C     1.505000000    -0.206000000    -0.338000000
C     2.986000000    -0.325000000    -0.533000000
O     3.456000000    -1.459000000    -0.645000000
O     3.790000000     0.653000000    -0.416000000
O    -4.655000000    -1.286000000     2.598000000
H    -4.872000000    -0.448000000     2.190000000
H    -4.636000000    -1.908000000     1.871000000
O    -0.331000000     4.711000000     4.607000000
H    -0.001000000     3.812000000     4.601000000
H    -1.114000000     4.682000000     4.057000000
O     5.664000000    -5.555000000     1.789000000
H     5.249000000    -4.761000000     1.451000000
H     4.933000000    -6.128000000     2.020000000
O    -2.033000000     4.705000000     2.579000000
H    -2.387000000     3.999000000     2.038000000
H    -2.200000000     5.501000000     2.074000000
O    -3.448000000    -3.806000000    -0.712000000
H    -2.824000000    -3.675000000    -1.426000000
H    -2.924000000    -4.179000000    -0.002000000
O     8.506000000    -2.414000000    -0.453000000
H     9.054000000    -2.027000000    -1.136000000
H     7.625000000    -2.087000000    -0.639000000
O    -3.239000000    -2.099000000    -3.982000000
H    -3.788000000    -1.949000000    -4.752000000
H    -3.726000000    -1.702000000    -3.260000000
O     5.141000000     0.976000000    -2.628000000
H     5.597000000     1.756000000    -2.312000000
H     4.443000000     0.831000000    -1.989000000
O     6.558000000     0.095000000     2.770000000
H     6.117000000     0.546000000     3.491000000
H     6.295000000     0.581000000     1.988000000
O     2.016000000    -7.065000000    -0.682000000
H     1.306000000    -6.511000000    -1.006000000
H     2.796000000    -6.746000000    -1.136000000
O    -4.718000000     2.001000000     5.352000000
H    -5.600000000     1.638000000     5.276000000
H    -4.705000000     2.731000000     4.733000000
O     0.235000000     1.924000000     4.143000000
H     0.039000000     1.056000000     3.789000000
H     1.179000000     2.026000000     4.018000000
O     3.325000000     1.077000000     2.404000000
H     3.484000000     1.156000000     1.464000000
H     3.741000000     0.250000000     2.649000000
O    -1.332000000    -3.546000000    -3.159000000
H    -1.980000000    -2.895000000    -3.429000000
H    -1.477000000    -4.287000000    -3.747000000
O    -2.770000000     3.095000000    -1.622000000
H    -1.945000000     3.319000000    -1.190000000
H    -2.514000000     2.514000000    -2.339000000
O    -2.005000000     0.722000000    -3.241000000
H    -2.784000000     0.221000000    -3.001000000
H    -1.491000000     0.768000000    -2.435000000
O     1.892000000    -2.637000000     3.437000000
H     1.593000000    -3.452000000     3.035000000
H     1.199000000    -2.005000000     3.241000000
O    -2.731000000     0.199000000     3.460000000
H    -2.743000000     0.916000000     2.827000000
H    -3.440000000    -0.380000000     3.181000000
O     3.246000000     3.477000000    -1.845000000
H     3.260000000     2.581000000    -1.507000000
H     4.140000000     3.634000000    -2.147000000
O    -4.758000000    -2.116000000     5.272000000
H    -4.934000000    -1.539000000     4.529000000
H    -4.592000000    -1.520000000     6.003000000
O     0.643000000    -4.887000000    -1.302000000
H    -0.088000000    -4.589000000    -1.844000000
H     1.346000000    -4.265000000    -1.485000000
O     6.146000000     1.704000000     0.555000000
H     6.648000000     2.106000000    -0.154000000
H     5.438000000     1.236000000     0.111000000
O     1.994000000     5.667000000    -1.266000000
H     2.396000000     4.864000000    -1.597000000
H     2.584000000     5.961000000    -0.572000000
O    -1.602000000     0.562000000     5.994000000
H    -2.379000000     0.954000000     6.393000000
H    -1.878000000     0.332000000     5.107000000
O    -5.639000000     3.805000000    -2.190000000
H    -5.236000000     4.673000000    -2.173000000
H    -4.908000000     3.200000000    -2.064000000
O     0.733000000    -4.242000000     1.523000000
H     0.817000000    -4.250000000     0.569000000
H    -0.210000000    -4.273000000     1.680000000
O     1.065000000     2.285000000    -4.479000000
H     1.604000000     1.507000000    -4.336000000
H     0.308000000     1.965000000    -4.971000000
O     6.146000000     4.231000000     1.590000000
H     6.403000000     3.352000000     1.312000000
H     6.867000000     4.793000000     1.307000000
O     7.189000000     2.829000000    -1.786000000
H     8.036000000     2.409000000    -1.934000000
H     7.353000000     3.759000000    -1.941000000
O     1.858000000    -3.410000000    -4.293000000
H     1.148000000    -4.034000000    -4.442000000
H     2.394000000    -3.816000000    -3.612000000
O     5.070000000     1.617000000    -5.291000000
H     5.170000000     1.382000000    -4.369000000
H     5.047000000     0.778000000    -5.752000000
O     6.180000000    -1.500000000    -1.425000000
H     5.524000000    -1.269000000    -0.768000000
H     6.137000000    -0.791000000    -2.067000000
O    -5.775000000     1.025000000     1.788000000
H    -6.226000000     1.711000000     2.281000000
H    -6.241000000     0.986000000     0.952000000
O    -1.409000000     6.224000000    -1.484000000
H    -1.264000000     5.329000000    -1.793000000
H    -0.810000000     6.758000000    -2.006000000
O    -0.109000000    -0.718000000     2.885000000
H    -0.176000000    -0.647000000     1.932000000
H    -0.998000000    -0.924000000     3.173000000
O     6.249000000    -3.930000000    -2.829000000
H     6.352000000    -3.757000000    -3.764000000
H     5.984000000    -3.089000000    -2.457000000
O    -0.127000000     3.722000000    -2.201000000
H     0.659000000     4.203000000    -1.942000000
H     0.163000000     3.160000000    -2.920000000
O    -3.438000000     2.914000000     1.076000000
H    -3.453000000     3.025000000     0.126000000
H    -4.310000000     2.584000000     1.293000000
O    -2.689000000     6.564000000     0.916000000
H    -3.613000000     6.447000000     0.694000000
H    -2.221000000     6.376000000     0.102000000
O    -4.361000000    -0.472000000    -2.004000000
H    -4.632000000    -1.137000000    -1.371000000
H    -4.877000000     0.301000000    -1.775000000
O     2.317000000    -0.493000000    -4.179000000
H     2.765000000    -0.909000000    -3.442000000
H     1.850000000    -1.209000000    -4.610000000
O     3.053000000    -3.913000000    -1.805000000
H     3.761000000    -4.536000000    -1.969000000
H     3.477000000    -3.180000000    -1.359000000
O     1.932000000     5.680000000     3.045000000
H     1.682000000     6.536000000     3.391000000
H     1.153000000     5.136000000     3.162000000
O    -6.670000000     1.152000000    -1.328000000
H    -6.529000000     1.974000000    -1.797000000
H    -7.224000000     0.634000000    -1.911000000
O     4.097000000    -3.539000000     1.053000000
H     3.937000000    -2.817000000     0.444000000
H     3.466000000    -3.401000000     1.759000000
O    -2.141000000    -4.864000000     1.528000000
H    -2.499000000    -5.058000000     2.394000000
H    -1.853000000    -5.712000000     1.192000000
O     3.386000000     3.443000000     3.836000000
H     3.507000000     2.565000000     3.475000000
H     3.209000000     3.993000000     3.073000000
O    -5.364000000    -2.063000000     0.143000000
H    -4.824000000    -2.852000000     0.137000000
H    -6.250000000    -2.377000000    -0.040000000
