158
-3050.03736
C     0.487000000     1.268000000    -0.648000000
H     0.915000000     2.234000000    -0.901000000
C    -0.628000000     1.188000000     0.221000000
H    -1.129000000     2.093000000     0.554000000
C    -0.977000000    -0.018000000     0.761000000
H    -1.797000000    -0.035000000     1.424000000
C    -0.279000000    -1.200000000     0.326000000
H    -0.543000000    -2.108000000     0.863000000
C     0.773000000    -1.173000000    -0.545000000
H     1.379000000    -2.049000000    -0.759000000
C     1.178000000     0.097000000    -1.090000000
C     2.400000000     0.063000000    -1.952000000
O     2.685000000    -0.924000000    -2.569000000
O     3.092000000     1.087000000    -2.012000000
O    -6.703000000     2.659000000     3.284000000
H    -5.828000000     2.938000000     3.553000000
H    -6.547000000     1.953000000     2.657000000
O    -2.216000000     3.937000000     2.236000000
H    -1.578000000     3.496000000     2.797000000
H    -2.707000000     3.225000000     1.826000000
O    -2.430000000    -4.615000000     0.103000000
H    -2.116000000    -4.894000000     0.963000000
H    -1.925000000    -5.139000000    -0.519000000
O     3.608000000    -3.740000000    -1.606000000
H     3.452000000    -2.861000000    -1.953000000
H     2.769000000    -4.190000000    -1.706000000
O    -4.063000000    -0.532000000     3.419000000
H    -4.247000000    -1.206000000     2.765000000
H    -4.541000000    -0.817000000     4.198000000
O     4.173000000     3.877000000    -0.959000000
H     3.638000000     4.629000000    -1.213000000
H     3.811000000     3.145000000    -1.459000000
O    -2.224000000    -5.111000000     2.829000000
H    -1.381000000    -5.514000000     3.035000000
H    -2.536000000    -4.767000000     3.667000000
O     4.526000000     0.277000000     0.126000000
H     3.986000000     0.659000000     0.818000000
H     4.115000000     0.570000000    -0.687000000
O    -0.868000000    -2.534000000     3.841000000
H    -0.343000000    -3.248000000     3.479000000
H    -1.762000000    -2.729000000     3.562000000
O     2.178000000    -4.834000000    -4.844000000
H     2.777000000    -5.545000000    -4.618000000
H     1.525000000    -5.242000000    -5.413000000
O     2.125000000     0.069000000     2.222000000
H     2.110000000     1.021000000     2.121000000
H     1.209000000    -0.173000000     2.355000000
O    -0.218000000    -0.548000000    -4.545000000
H    -0.577000000     0.296000000    -4.817000000
H     0.714000000    -0.491000000    -4.755000000
O    -1.115000000     0.060000000     4.281000000
H    -2.022000000     0.210000000     4.012000000
H    -0.937000000    -0.846000000     4.029000000
O    -4.661000000    -2.762000000    -1.573000000
H    -4.676000000    -1.951000000    -1.064000000
H    -4.415000000    -2.486000000    -2.456000000
O    -4.537000000     3.150000000     4.677000000
H    -4.090000000     3.550000000     3.932000000
H    -4.019000000     3.413000000     5.437000000
O    -0.608000000     6.044000000     2.351000000
H    -1.177000000     5.280000000     2.439000000
H    -0.812000000     6.395000000     1.484000000
O    -3.134000000    -4.753000000    -2.647000000
H    -3.696000000    -4.404000000    -1.955000000
H    -2.426000000    -4.114000000    -2.725000000
O     6.152000000     0.736000000    -5.669000000
H     6.427000000     1.564000000    -5.277000000
H     5.723000000     0.264000000    -4.955000000
O     3.422000000     2.203000000    -4.450000000
H     2.880000000     1.662000000    -5.024000000
H     3.309000000     1.818000000    -3.581000000
O     0.690000000    -4.283000000     2.677000000
H     0.781000000    -4.625000000     1.787000000
H     1.401000000    -4.697000000     3.166000000
O     4.803000000    -3.407000000     1.257000000
H     4.377000000    -3.245000000     0.415000000
H     5.718000000    -3.166000000     1.112000000
O     3.581000000    -1.945000000     3.430000000
H     4.132000000    -2.190000000     2.686000000
H     2.905000000    -1.381000000     3.052000000
O     2.788000000     5.695000000    -2.474000000
H     2.245000000     6.448000000    -2.707000000
H     3.682000000     5.975000000    -2.668000000
O     0.731000000    -4.318000000    -2.473000000
H     0.960000000    -4.478000000    -3.388000000
H     0.090000000    -3.608000000    -2.506000000
O    -6.501000000     1.341000000     0.503000000
H    -7.144000000     0.776000000     0.932000000
H    -7.006000000     2.101000000     0.214000000
O     4.829000000     4.037000000    -5.805000000
H     5.738000000     4.127000000    -5.520000000
H     4.407000000     3.537000000    -5.106000000
O    -1.931000000     0.968000000    -2.549000000
H    -1.313000000     0.921000000    -3.279000000
H    -1.397000000     0.801000000    -1.772000000
O    -4.247000000    -2.503000000     1.113000000
H    -4.162000000    -1.664000000     0.662000000
H    -3.495000000    -3.014000000     0.813000000
O    -4.084000000    -0.115000000    -0.190000000
H    -3.395000000     0.448000000    -0.544000000
H    -4.803000000     0.483000000     0.011000000
O    -3.506000000     6.412000000     0.844000000
H    -3.431000000     5.635000000     0.292000000
H    -3.665000000     6.068000000     1.723000000
O    -4.312000000     3.335000000    -2.220000000
H    -3.513000000     3.468000000    -2.729000000
H    -4.590000000     2.446000000    -2.440000000
O     1.636000000    -1.942000000     5.458000000
H     1.992000000    -2.131000000     4.590000000
H     0.751000000    -2.305000000     5.437000000
O     0.038000000     0.491000000     7.003000000
H    -0.218000000     0.458000000     6.081000000
H     0.993000000     0.417000000     6.989000000
O    -5.383000000    -4.178000000     3.085000000
H    -4.919000000    -3.890000000     3.871000000
H    -5.000000000    -3.659000000     2.378000000
O     5.983000000    -3.824000000    -5.337000000
H     5.167000000    -3.325000000    -5.307000000
H     6.400000000    -3.653000000    -4.493000000
O     2.007000000     5.408000000     2.039000000
H     1.108000000     5.719000000     1.937000000
H     2.154000000     5.407000000     2.985000000
O    -0.451000000     2.706000000     4.198000000
H    -0.973000000     3.101000000     4.896000000
H    -0.640000000     1.769000000     4.259000000
O     2.130000000     0.334000000    -5.797000000
H     2.249000000     0.415000000    -6.744000000
H     2.749000000    -0.347000000    -5.535000000
O     6.985000000     0.630000000     1.138000000
H     6.110000000     0.326000000     0.897000000
H     7.002000000     1.548000000     0.868000000
O     6.889000000     3.515000000    -0.571000000
H     5.948000000     3.449000000    -0.737000000
H     7.221000000     4.059000000    -1.285000000
O    -1.210000000    -2.496000000    -2.895000000
H    -0.592000000    -1.942000000    -3.373000000
H    -1.977000000    -1.939000000    -2.760000000
O     3.612000000    -2.290000000    -4.937000000
H     3.135000000    -3.098000000    -4.747000000
H     3.397000000    -1.707000000    -4.208000000
O     2.839000000     2.856000000     1.052000000
H     2.365000000     3.662000000     1.256000000
H     3.318000000     3.057000000     0.247000000
O    -4.043000000     1.824000000     1.963000000
H    -4.658000000     1.492000000     1.309000000
H    -3.969000000     1.116000000     2.603000000
O    -0.828000000     2.093000000    -4.828000000
H    -1.423000000     2.738000000    -5.209000000
H    -0.058000000     2.600000000    -4.571000000
O     5.299000000    -0.154000000    -3.106000000
H     5.886000000    -0.037000000    -2.358000000
H     4.421000000    -0.147000000    -2.724000000
O     0.817000000    -5.487000000     0.288000000
H     1.039000000    -4.972000000    -0.488000000
H     1.440000000    -6.213000000     0.281000000
O     1.125000000     3.999000000    -3.986000000
H     1.753000000     3.704000000    -4.646000000
H     1.626000000     4.596000000    -3.430000000
