158
-3007.70382
C     0.436000000     1.318000000     0.476000000
H     0.629000000     2.292000000     0.916000000
C    -0.912000000     0.851000000     0.411000000
H    -1.769000000     1.404000000     0.789000000
C    -1.189000000    -0.350000000    -0.151000000
H    -2.280000000    -0.778000000    -0.221000000
C    -0.121000000    -1.155000000    -0.602000000
H    -0.435000000    -2.094000000    -1.051000000
C     1.186000000    -0.718000000    -0.479000000
H     1.961000000    -1.448000000    -0.698000000
C     1.471000000     0.530000000     0.102000000
C     2.903000000     1.062000000     0.215000000
O     3.784000000     0.288000000     0.074000000
O     3.199000000     2.121000000     0.639000000
O    -4.117000000     4.638000000     3.360000000
H    -3.661000000     5.108000000     4.058000000
H    -3.523000000     3.925000000     3.124000000
O     1.476000000     6.662000000     2.949000000
H     1.397000000     7.103000000     2.104000000
H     1.945000000     5.851000000     2.753000000
O    -1.093000000    -6.745000000    -0.464000000
H    -1.299000000    -6.222000000     0.312000000
H    -1.321000000    -6.179000000    -1.201000000
O    -4.503000000     0.674000000    -4.724000000
H    -4.373000000     1.088000000    -3.871000000
H    -4.861000000    -0.190000000    -4.520000000
O    -4.780000000     3.891000000    -3.514000000
H    -4.222000000     3.233000000    -3.100000000
H    -5.653000000     3.722000000    -3.160000000
O     5.539000000    -0.953000000    -1.680000000
H     6.240000000    -0.848000000    -1.037000000
H     4.745000000    -0.689000000    -1.214000000
O     6.648000000    -0.033000000     3.982000000
H     6.896000000     0.873000000     3.798000000
H     5.788000000    -0.134000000     3.575000000
O    -3.434000000    -0.184000000     4.174000000
H    -3.558000000    -1.074000000     4.502000000
H    -3.207000000     0.328000000     4.950000000
O     6.257000000     1.935000000     0.985000000
H     6.609000000     2.807000000     0.809000000
H     5.308000000     2.042000000     0.916000000
O     0.875000000     3.723000000     5.903000000
H     0.208000000     3.754000000     5.218000000
H     1.673000000     3.453000000     5.447000000
O     4.982000000    -1.409000000     1.694000000
H     4.426000000    -0.859000000     1.142000000
H     5.870000000    -1.091000000     1.533000000
O     4.092000000    -1.332000000     4.820000000
H     4.810000000    -1.842000000     4.448000000
H     3.870000000    -0.698000000     4.138000000
O    -2.277000000    -2.107000000     2.231000000
H    -2.896000000    -1.378000000     2.199000000
H    -1.586000000    -1.861000000     1.616000000
O    -1.403000000     4.651000000     1.314000000
H    -1.041000000     5.181000000     0.604000000
H    -2.221000000     4.302000000     0.960000000
O     0.986000000     1.727000000     3.726000000
H     0.307000000     2.403000000     3.729000000
H     0.506000000     0.906000000     3.837000000
O     2.402000000     0.862000000    -3.832000000
H     2.570000000     0.760000000    -4.768000000
H     3.082000000     1.465000000    -3.531000000
O     0.005000000    -0.665000000     4.054000000
H    -0.847000000    -0.997000000     3.769000000
H     0.629000000    -1.044000000     3.435000000
O     3.687000000     1.042000000     2.995000000
H     3.663000000     1.280000000     2.068000000
H     2.878000000     1.404000000     3.356000000
O    -4.950000000    -1.891000000    -4.221000000
H    -5.615000000    -2.207000000    -3.609000000
H    -4.976000000    -2.515000000    -4.946000000
O    -3.479000000    -3.769000000    -0.552000000
H    -3.081000000    -3.490000000    -1.377000000
H    -3.986000000    -3.010000000    -0.263000000
O     2.963000000     4.466000000     1.911000000
H     2.896000000     3.561000000     1.607000000
H     3.468000000     4.911000000     1.231000000
O    -1.771000000    -5.467000000    -3.353000000
H    -2.077000000    -4.602000000    -3.079000000
H    -1.064000000    -5.286000000    -3.972000000
O    -1.505000000     3.292000000    -4.324000000
H    -0.626000000     3.609000000    -4.114000000
H    -1.506000000     2.380000000    -4.033000000
O     4.944000000     1.881000000    -2.292000000
H     5.889000000     1.797000000    -2.419000000
H     4.726000000     1.202000000    -1.655000000
O     1.285000000    -4.667000000     0.417000000
H     1.118000000    -4.444000000    -0.499000000
H     2.234000000    -4.787000000     0.464000000
O     1.040000000    -2.199000000     2.039000000
H     1.228000000    -3.031000000     1.605000000
H     0.978000000    -1.565000000     1.324000000
O     4.694000000     5.711000000     0.205000000
H     4.725000000     6.626000000    -0.074000000
H     5.339000000     5.270000000    -0.347000000
O     1.747000000    -1.739000000    -3.799000000
H     0.857000000    -1.967000000    -4.070000000
H     1.786000000    -0.786000000    -3.883000000
O    -2.611000000    -2.678000000    -2.700000000
H    -1.837000000    -2.347000000    -3.155000000
H    -3.349000000    -2.359000000    -3.219000000
O    -0.521000000     0.902000000    -3.110000000
H     0.399000000     0.816000000    -3.360000000
H    -0.565000000     0.534000000    -2.228000000
O    -2.387000000    -4.790000000     1.623000000
H    -2.100000000    -3.928000000     1.926000000
H    -2.965000000    -4.603000000     0.883000000
O    -5.209000000     1.153000000    -0.521000000
H    -6.000000000     1.670000000    -0.363000000
H    -4.786000000     1.095000000     0.336000000
O    -6.813000000    -0.244000000     2.270000000
H    -7.676000000     0.090000000     2.026000000
H    -6.954000000    -0.685000000     3.108000000
O    -5.153000000    -1.567000000     0.379000000
H    -5.831000000    -1.578000000     1.054000000
H    -5.262000000    -0.722000000    -0.057000000
O    -3.916000000     4.116000000    -0.055000000
H    -4.401000000     4.912000000    -0.274000000
H    -4.588000000     3.437000000     0.006000000
O    -3.162000000    -2.975000000     4.980000000
H    -2.227000000    -2.950000000     5.186000000
H    -3.198000000    -3.235000000     4.060000000
O    -0.990000000     3.991000000     3.873000000
H    -1.510000000     4.619000000     4.374000000
H    -1.066000000     4.286000000     2.966000000
O    -3.004000000     1.644000000    -2.433000000
H    -3.306000000     1.104000000    -1.703000000
H    -2.127000000     1.313000000    -2.629000000
O     0.396000000     6.172000000    -1.097000000
H     0.614000000     5.437000000    -1.670000000
H    -0.471000000     6.453000000    -1.388000000
O     6.426000000     4.178000000    -1.101000000
H     6.083000000     3.368000000    -1.478000000
H     7.098000000     4.465000000    -1.719000000
O    -0.650000000    -1.815000000    -4.725000000
H    -0.776000000    -1.168000000    -5.419000000
H    -0.794000000    -2.658000000    -5.154000000
O    -2.222000000     5.116000000    -2.122000000
H    -2.123000000     4.589000000    -2.915000000
H    -2.860000000     4.636000000    -1.594000000
O     5.436000000     4.393000000     3.374000000
H     6.011000000     4.684000000     2.667000000
H     4.561000000     4.387000000     2.984000000
O    -4.488000000     1.239000000     2.149000000
H    -5.347000000     0.818000000     2.189000000
H    -4.040000000     0.944000000     2.941000000
O     7.203000000    -0.493000000     0.308000000
H     7.766000000    -0.786000000     1.024000000
H     6.949000000     0.397000000     0.551000000
O     6.500000000    -2.571000000    -3.354000000
H     5.954000000    -1.883000000    -2.972000000
H     7.273000000    -2.604000000    -2.790000000
O     0.698000000    -4.315000000    -2.138000000
H     1.012000000    -3.549000000    -2.619000000
H     1.150000000    -5.055000000    -2.544000000
O     2.605000000     3.875000000    -1.571000000
H     2.842000000     3.064000000    -1.121000000
H     3.370000000     4.441000000    -1.463000000
