158
-3049.11641
C     0.785000000     1.260000000    -0.183000000
H     1.147000000     2.279000000    -0.292000000
C    -0.494000000     1.224000000     0.328000000
H    -1.050000000     2.124000000     0.579000000
C    -1.100000000    -0.015000000     0.522000000
H    -2.077000000    -0.005000000     1.015000000
C    -0.471000000    -1.160000000     0.068000000
H    -0.905000000    -2.157000000     0.079000000
C     0.843000000    -1.081000000    -0.433000000
H     1.235000000    -2.011000000    -0.838000000
C     1.533000000     0.134000000    -0.539000000
C     2.820000000     0.223000000    -1.211000000
O     3.621000000    -0.714000000    -1.099000000
O     3.051000000     1.271000000    -1.797000000
O    -2.075000000     4.938000000     3.971000000
H    -2.221000000     5.544000000     3.245000000
H    -2.949000000     4.773000000     4.324000000
O     1.125000000    -5.810000000    -2.207000000
H     1.713000000    -6.396000000    -1.731000000
H     1.688000000    -5.093000000    -2.502000000
O     1.001000000     0.348000000    -5.449000000
H     1.407000000     1.041000000    -4.928000000
H     1.215000000     0.572000000    -6.355000000
O    -6.108000000    -0.596000000    -1.638000000
H    -5.189000000    -0.533000000    -1.379000000
H    -6.250000000    -1.530000000    -1.795000000
O     6.384000000    -3.654000000    -0.513000000
H     6.868000000    -3.509000000    -1.326000000
H     6.112000000    -2.779000000    -0.237000000
O     5.362000000    -0.640000000     0.856000000
H     4.729000000    -0.630000000     0.138000000
H     4.928000000    -0.166000000     1.565000000
O     0.793000000    -2.432000000     5.809000000
H    -0.008000000    -1.911000000     5.759000000
H     1.367000000    -1.932000000     6.390000000
O     6.872000000    -1.550000000     3.059000000
H     6.427000000    -1.397000000     2.225000000
H     7.717000000    -1.111000000     2.964000000
O    -1.007000000    -5.154000000    -4.500000000
H    -0.272000000    -4.622000000    -4.197000000
H    -0.726000000    -5.489000000    -5.352000000
O     1.496000000    -3.823000000     2.538000000
H     1.935000000    -3.496000000     3.323000000
H     2.027000000    -3.493000000     1.813000000
O    -0.430000000     4.268000000     1.517000000
H    -1.197000000     4.253000000     0.945000000
H    -0.694000000     3.761000000     2.285000000
O    -1.167000000    -2.229000000     3.384000000
H    -1.048000000    -2.945000000     2.760000000
H    -0.425000000    -2.308000000     3.983000000
O    -1.271000000    -1.034000000    -3.916000000
H    -0.938000000    -1.894000000    -4.172000000
H    -0.866000000    -0.426000000    -4.535000000
O     1.225000000     2.529000000    -3.483000000
H     0.616000000     2.974000000    -2.895000000
H     1.729000000     1.949000000    -2.913000000
O     4.281000000     1.511000000     2.240000000
H     3.439000000     1.967000000     2.249000000
H     4.779000000     1.915000000     2.951000000
O     0.852000000    -2.364000000    -5.002000000
H     0.729000000    -2.647000000    -5.908000000
H     1.195000000    -1.473000000    -5.074000000
O    -3.137000000    -3.723000000     1.608000000
H    -3.316000000    -3.115000000     0.891000000
H    -3.335000000    -3.224000000     2.401000000
O    -0.628000000    -5.097000000     0.948000000
H    -0.067000000    -4.826000000     1.674000000
H    -1.490000000    -4.743000000     1.166000000
O     5.250000000     3.657000000     0.476000000
H     4.489000000     3.925000000    -0.038000000
H     4.978000000     2.844000000     0.902000000
O     3.017000000    -3.614000000    -3.075000000
H     3.621000000    -2.876000000    -3.156000000
H     2.326000000    -3.428000000    -3.711000000
O     7.086000000     0.499000000    -0.899000000
H     7.714000000     0.902000000    -0.299000000
H     6.474000000     0.035000000    -0.328000000
O    -2.936000000    -4.491000000    -2.052000000
H    -2.415000000    -4.406000000    -2.850000000
H    -2.701000000    -5.351000000    -1.703000000
O     3.086000000    -3.298000000     0.155000000
H     3.059000000    -3.798000000    -0.661000000
H     3.418000000    -2.438000000    -0.102000000
O     5.617000000    -1.330000000    -3.066000000
H     6.433000000    -1.222000000    -2.577000000
H     4.962000000    -0.866000000    -2.544000000
O    -5.933000000    -3.365000000    -2.015000000
H    -6.225000000    -3.386000000    -2.926000000
H    -5.013000000    -3.628000000    -2.052000000
O    -2.809000000     2.355000000    -2.029000000
H    -2.116000000     1.791000000    -2.376000000
H    -3.566000000     1.776000000    -1.941000000
O    -5.088000000     2.391000000     0.178000000
H    -5.283000000     3.140000000     0.740000000
H    -4.811000000     1.703000000     0.783000000
O    -6.879000000    -1.090000000     1.338000000
H    -7.453000000    -0.585000000     1.914000000
H    -7.292000000    -1.029000000     0.476000000
O    -4.269000000    -1.310000000     0.444000000
H    -4.124000000    -0.535000000     0.985000000
H    -5.171000000    -1.570000000     0.635000000
O     0.675000000     0.636000000     3.234000000
H     1.075000000     0.525000000     2.371000000
H    -0.255000000     0.459000000     3.090000000
O     7.756000000     0.590000000    -3.688000000
H     7.188000000     0.773000000    -2.940000000
H     7.153000000     0.468000000    -4.422000000
O    -2.627000000     4.556000000    -0.013000000
H    -3.122000000     5.245000000    -0.456000000
H    -3.019000000     3.741000000    -0.326000000
O    -5.130000000    -0.725000000     4.658000000
H    -5.876000000    -1.292000000     4.464000000
H    -4.840000000    -1.000000000     5.528000000
O    -1.516000000    -1.083000000     5.760000000
H    -2.053000000    -1.433000000     5.049000000
H    -1.736000000    -0.152000000     5.790000000
O    -2.654000000     6.786000000     1.881000000
H    -2.548000000     7.606000000     1.399000000
H    -2.501000000     6.103000000     1.228000000
O     2.104000000     2.994000000     2.024000000
H     1.875000000     3.824000000     1.606000000
H     1.687000000     3.036000000     2.884000000
O    -6.228000000     2.367000000    -2.339000000
H    -5.845000000     2.551000000    -1.481000000
H    -5.739000000     1.612000000    -2.663000000
O     5.422000000     3.080000000    -5.585000000
H     5.262000000     2.808000000    -4.681000000
H     5.705000000     2.280000000    -6.028000000
O     2.939000000     4.021000000    -1.047000000
H     3.157000000     3.089000000    -1.044000000
H     2.040000000     4.055000000    -1.375000000
O     2.568000000     7.194000000    -0.655000000
H     2.416000000     6.955000000    -1.569000000
H     2.481000000     6.370000000    -0.175000000
O    -1.880000000     2.330000000     3.564000000
H    -2.047000000     2.000000000     4.447000000
H    -2.041000000     3.272000000     3.627000000
O    -3.244000000    -0.605000000    -2.011000000
H    -2.474000000    -0.898000000    -2.500000000
H    -3.062000000    -0.853000000    -1.105000000
O    -5.919000000     1.842000000     5.295000000
H    -6.463000000     2.146000000     4.568000000
H    -5.720000000     0.930000000     5.081000000
O     0.113000000     4.115000000    -1.527000000
H    -0.278000000     4.547000000    -2.286000000
H    -0.618000000     3.984000000    -0.923000000
O    -4.270000000     0.611000000     2.597000000
H    -3.708000000     1.274000000     2.998000000
H    -4.499000000     0.023000000     3.316000000
O     3.235000000    -6.373000000     1.351000000
H     3.256000000    -5.567000000     0.834000000
H     2.410000000    -6.792000000     1.108000000
O    -4.355000000     0.757000000    -4.264000000
H    -5.062000000     0.301000000    -4.720000000
H    -3.905000000     0.070000000    -3.772000000
O     5.355000000     2.197000000    -2.780000000
H     4.498000000     1.797000000    -2.631000000
H     5.756000000     2.234000000    -1.911000000
