158
-2994.45915
C     0.400000000     1.417000000     0.282000000
H     0.648000000     2.475000000     0.290000000
C    -0.857000000     0.912000000     0.501000000
H    -1.613000000     1.609000000     0.854000000
C    -1.172000000    -0.424000000     0.188000000
H    -2.202000000    -0.792000000     0.410000000
C    -0.159000000    -1.270000000    -0.227000000
H    -0.410000000    -2.302000000    -0.456000000
C     1.148000000    -0.793000000    -0.515000000
H     1.907000000    -1.496000000    -0.848000000
C     1.407000000     0.590000000    -0.252000000
C     2.871000000     1.014000000    -0.408000000
O     3.745000000     0.248000000    -0.392000000
O     3.166000000     2.225000000    -0.297000000
O     3.211000000     6.909000000     2.119000000
H     2.310000000     7.230000000     2.163000000
H     3.194000000     6.245000000     1.429000000
O     1.575000000     1.215000000    -3.516000000
H     2.097000000     1.950000000    -3.196000000
H     1.770000000     1.172000000    -4.452000000
O    -0.977000000    -6.066000000    -3.150000000
H    -0.401000000    -6.599000000    -3.698000000
H    -1.373000000    -5.440000000    -3.757000000
O    -6.748000000    -0.304000000     0.043000000
H    -6.339000000     0.350000000    -0.523000000
H    -7.559000000    -0.539000000    -0.409000000
O    -6.780000000     2.575000000     2.215000000
H    -7.283000000     3.320000000     1.886000000
H    -6.077000000     2.459000000     1.576000000
O    -6.773000000    -0.107000000     3.282000000
H    -7.074000000     0.498000000     2.605000000
H    -5.818000000    -0.047000000     3.249000000
O     3.302000000    -2.099000000     1.727000000
H     3.748000000    -1.382000000     1.275000000
H     2.778000000    -1.667000000     2.402000000
O     2.965000000    -4.153000000    -4.402000000
H     2.100000000    -3.742000000    -4.394000000
H     3.570000000    -3.440000000    -4.195000000
O    -1.356000000     5.674000000     3.821000000
H    -0.523000000     5.340000000     3.489000000
H    -1.552000000     5.122000000     4.578000000
O    -2.911000000    -2.894000000     5.055000000
H    -2.925000000    -2.751000000     4.108000000
H    -2.127000000    -3.421000000     5.206000000
O    -0.634000000    -0.115000000    -3.091000000
H    -0.999000000    -0.146000000    -2.206000000
H     0.128000000     0.460000000    -3.016000000
O     2.214000000     3.681000000    -2.666000000
H     1.338000000     3.508000000    -2.321000000
H     2.796000000     3.153000000    -2.118000000
O    -6.405000000     1.826000000    -1.608000000
H    -6.266000000     1.508000000    -2.500000000
H    -7.237000000     2.296000000    -1.647000000
O     1.813000000     0.768000000     3.285000000
H     1.430000000     0.607000000     2.423000000
H     2.582000000     1.309000000     3.109000000
O     0.726000000    -2.839000000    -4.052000000
H     0.327000000    -2.678000000    -4.908000000
H     0.794000000    -1.972000000    -3.653000000
O    -2.764000000    -2.952000000     2.283000000
H    -3.695000000    -2.767000000     2.155000000
H    -2.314000000    -2.241000000     1.825000000
O    -4.002000000     0.376000000    -6.000000000
H    -3.105000000     0.104000000    -6.194000000
H    -4.137000000     0.125000000    -5.086000000
O     3.529000000     2.940000000     2.388000000
H     3.618000000     2.985000000     1.436000000
H     4.086000000     3.646000000     2.714000000
O     1.670000000    -4.016000000    -1.747000000
H     2.116000000    -3.329000000    -2.242000000
H     1.239000000    -4.550000000    -2.415000000
O    -1.245000000     0.119000000    -5.759000000
H    -1.261000000    -0.802000000    -6.020000000
H    -0.972000000     0.103000000    -4.841000000
O     6.465000000    -1.091000000     0.090000000
H     7.131000000    -0.429000000    -0.093000000
H     5.635000000    -0.660000000    -0.115000000
O    -4.663000000    -4.711000000    -2.391000000
H    -4.132000000    -4.286000000    -3.064000000
H    -4.175000000    -4.572000000    -1.579000000
O     1.119000000     7.457000000    -2.389000000
H     1.073000000     6.794000000    -1.701000000
H     0.633000000     8.203000000    -2.037000000
O     2.989000000    -4.619000000     0.790000000
H     2.960000000    -3.704000000     1.070000000
H     2.773000000    -4.591000000    -0.141000000
O     3.459000000    -1.839000000    -2.646000000
H     3.861000000    -1.236000000    -3.271000000
H     3.410000000    -1.341000000    -1.830000000
O    -6.273000000    -2.452000000    -2.201000000
H    -6.740000000    -2.446000000    -1.366000000
H    -5.613000000    -3.139000000    -2.102000000
O     5.463000000    -0.738000000    -4.540000000
H     6.301000000    -1.168000000    -4.368000000
H     5.149000000    -1.141000000    -5.349000000
O    -0.360000000     3.294000000    -2.283000000
H    -0.386000000     3.492000000    -3.219000000
H    -1.119000000     2.730000000    -2.136000000
O    -3.264000000     2.001000000    -2.232000000
H    -3.623000000     2.731000000    -2.736000000
H    -3.659000000     1.222000000    -2.625000000
O    -5.399000000    -2.844000000     1.475000000
H    -6.133000000    -3.391000000     1.756000000
H    -5.811000000    -2.072000000     1.087000000
O     4.135000000     5.652000000    -3.019000000
H     4.695000000     5.410000000    -3.756000000
H     3.639000000     4.856000000    -2.823000000
O     7.063000000    -3.577000000     0.799000000
H     6.842000000    -2.691000000     0.511000000
H     7.654000000    -3.448000000     1.540000000
O     8.756000000     0.903000000    -0.111000000
H     9.536000000     1.037000000     0.426000000
H     8.105000000     1.499000000     0.259000000
O    -4.073000000     5.850000000     2.404000000
H    -3.835000000     5.690000000     3.317000000
H    -3.711000000     5.103000000     1.927000000
O     0.729000000     3.983000000     3.308000000
H     1.604000000     3.626000000     3.150000000
H     0.364000000     3.426000000     3.995000000
O    -4.595000000     2.498000000     0.146000000
H    -3.738000000     2.498000000    -0.280000000
H    -5.182000000     2.099000000    -0.496000000
O     5.337000000     2.088000000    -3.534000000
H     5.210000000     2.674000000    -4.281000000
H     5.316000000     1.209000000    -3.914000000
O     2.798000000     5.043000000     0.396000000
H     2.829000000     4.315000000    -0.224000000
H     1.873000000     5.284000000     0.437000000
O     1.878000000     4.520000000    -5.262000000
H     2.031000000     4.141000000    -4.396000000
H     1.193000000     3.972000000    -5.645000000
O     5.462000000     0.146000000     2.727000000
H     5.583000000     0.673000000     1.937000000
H     5.418000000     0.785000000     3.438000000
O    -2.767000000    -2.522000000    -3.323000000
H    -1.908000000    -2.127000000    -3.471000000
H    -2.747000000    -3.335000000    -3.827000000
O     5.299000000    -4.004000000    -2.979000000
H     5.169000000    -3.060000000    -2.885000000
H     4.421000000    -4.376000000    -2.896000000
O     0.005000000     5.292000000    -0.319000000
H    -0.245000000     4.439000000    -0.672000000
H    -0.789000000     5.822000000    -0.386000000
O     6.620000000     3.750000000    -1.825000000
H     7.357000000     3.944000000    -2.404000000
H     6.130000000     3.066000000    -2.281000000
O     1.149000000    -5.060000000     3.165000000
H     1.852000000    -4.918000000     2.532000000
H     0.693000000    -5.839000000     2.846000000
O    -4.357000000    -0.386000000    -2.864000000
H    -5.106000000    -0.944000000    -2.652000000
H    -3.599000000    -0.967000000    -2.799000000
O     0.487000000     7.063000000     1.682000000
H    -0.123000000     7.024000000     2.418000000
H     0.268000000     6.298000000     1.149000000
O     6.030000000     1.792000000     0.167000000
H     5.201000000     1.417000000    -0.132000000
H     6.071000000     2.650000000    -0.254000000
