158
-3031.31880
C     1.210000000     0.801000000    -0.365000000
H     2.009000000     1.509000000    -0.566000000
C    -0.060000000     1.320000000    -0.239000000
H    -0.215000000     2.379000000    -0.429000000
C    -1.139000000     0.454000000     0.048000000
H    -2.195000000     0.794000000     0.130000000
C    -0.896000000    -0.898000000     0.165000000
H    -1.762000000    -1.517000000     0.384000000
C     0.333000000    -1.460000000     0.012000000
H     0.553000000    -2.521000000     0.102000000
C     1.442000000    -0.605000000    -0.224000000
C     2.815000000    -1.202000000    -0.185000000
O     3.036000000    -2.395000000    -0.059000000
O     3.780000000    -0.486000000    -0.278000000
O    -1.171000000     2.665000000     2.945000000
H    -0.372000000     2.210000000     2.681000000
H    -1.816000000     1.968000000     3.064000000
O    -4.219000000    -2.426000000    -1.187000000
H    -3.737000000    -2.558000000    -2.004000000
H    -4.896000000    -1.787000000    -1.409000000
O     5.107000000    -4.799000000     0.219000000
H     5.149000000    -5.745000000     0.362000000
H     4.225000000    -4.554000000     0.499000000
O    -3.697000000     3.035000000    -5.031000000
H    -4.151000000     2.224000000    -5.259000000
H    -4.065000000     3.285000000    -4.183000000
O    -5.096000000     1.237000000     1.063000000
H    -4.372000000     1.819000000     1.294000000
H    -4.933000000     1.002000000     0.150000000
O    -2.899000000    -1.731000000     2.868000000
H    -2.547000000    -1.036000000     2.312000000
H    -2.587000000    -2.541000000     2.466000000
O     3.769000000    -3.076000000     2.776000000
H     3.554000000    -2.506000000     2.038000000
H     2.972000000    -3.092000000     3.306000000
O     2.586000000    -5.594000000     3.175000000
H     3.155000000    -4.935000000     2.777000000
H     2.483000000    -5.305000000     4.082000000
O     6.410000000    -3.546000000     3.256000000
H     5.596000000    -3.085000000     3.051000000
H     7.094000000    -2.887000000     3.138000000
O    -6.837000000    -1.483000000    -0.212000000
H    -7.105000000    -1.204000000    -1.088000000
H    -7.204000000    -2.362000000    -0.119000000
O     0.245000000    -5.874000000     1.389000000
H     0.523000000    -5.484000000     0.560000000
H     1.060000000    -6.017000000     1.870000000
O    -0.687000000     5.687000000     2.631000000
H    -0.458000000     4.853000000     3.041000000
H    -0.905000000     6.262000000     3.365000000
O    -2.395000000    -4.808000000     4.494000000
H    -3.312000000    -5.002000000     4.299000000
H    -2.026000000    -4.527000000     3.657000000
O     0.352000000     0.021000000    -3.534000000
H    -0.022000000     0.312000000    -2.703000000
H     0.223000000    -0.927000000    -3.536000000
O     2.421000000    -7.367000000    -0.404000000
H     2.831000000    -7.247000000     0.452000000
H     2.069000000    -6.505000000    -0.625000000
O     2.821000000     1.201000000    -4.668000000
H     2.750000000     2.036000000    -4.205000000
H     1.942000000     0.825000000    -4.620000000
O     0.870000000    -2.612000000     3.741000000
H     0.252000000    -2.644000000     4.472000000
H     0.409000000    -3.038000000     3.019000000
O    -2.023000000    -3.965000000     1.857000000
H    -2.821000000    -4.270000000     1.425000000
H    -1.340000000    -4.560000000     1.547000000
O     3.559000000     1.659000000     2.211000000
H     3.272000000     0.789000000     1.933000000
H     4.505000000     1.657000000     2.064000000
O    -5.840000000     4.503000000     1.309000000
H    -6.035000000     3.745000000     1.860000000
H    -4.890000000     4.604000000     1.369000000
O     6.183000000     0.665000000     0.784000000
H     6.465000000     1.180000000     0.028000000
H     5.332000000     0.309000000     0.528000000
O     2.728000000    -3.463000000    -2.619000000
H     3.102000000    -3.005000000    -1.866000000
H     2.873000000    -2.870000000    -3.357000000
O     4.595000000     0.348000000    -2.498000000
H     3.913000000     0.105000000    -3.124000000
H     4.303000000    -0.027000000    -1.667000000
O    -6.937000000    -0.093000000     2.315000000
H    -7.104000000    -0.689000000     1.585000000
H    -6.245000000     0.487000000     1.997000000
O     0.906000000     2.899000000    -3.059000000
H     0.344000000     3.639000000    -2.829000000
H     0.316000000     2.145000000    -3.070000000
O    -1.802000000     2.023000000    -3.330000000
H    -2.375000000     2.377000000    -4.010000000
H    -2.136000000     1.140000000    -3.172000000
O    -3.741000000     1.494000000     3.525000000
H    -4.223000000     1.960000000     4.209000000
H    -4.142000000     0.625000000     3.499000000
O    -4.460000000    -4.590000000     0.534000000
H    -5.048000000    -4.271000000     1.219000000
H    -4.511000000    -3.927000000    -0.154000000
O     5.457000000    -2.563000000    -1.654000000
H     5.083000000    -1.900000000    -1.073000000
H     5.554000000    -3.339000000    -1.102000000
O     8.644000000    -0.477000000    -0.760000000
H     7.892000000    -0.402000000    -0.171000000
H     8.582000000     0.292000000    -1.326000000
O    -6.995000000     3.294000000    -0.736000000
H    -7.593000000     2.605000000    -0.446000000
H    -6.684000000     3.698000000     0.074000000
O    -1.659000000     3.472000000     5.515000000
H    -0.913000000     3.119000000     5.999000000
H    -1.424000000     3.355000000     4.594000000
O    -3.294000000     5.574000000    -1.173000000
H    -3.740000000     4.877000000    -1.655000000
H    -3.549000000     6.378000000    -1.625000000
O    -5.106000000     3.993000000    -2.849000000
H    -5.726000000     3.595000000    -2.238000000
H    -5.557000000     4.770000000    -3.177000000
O    -3.209000000     4.947000000     1.412000000
H    -3.327000000     5.182000000     0.491000000
H    -2.275000000     4.755000000     1.492000000
O     2.926000000     3.910000000     1.052000000
H     3.179000000     3.026000000     1.319000000
H     2.455000000     4.263000000     1.807000000
O    -4.720000000     1.010000000    -1.729000000
H    -4.129000000     1.680000000    -2.072000000
H    -5.487000000     1.051000000    -2.301000000
O     2.907000000     4.283000000    -1.910000000
H     2.127000000     3.732000000    -1.975000000
H     3.178000000     4.209000000    -0.995000000
O     7.293000000    -0.616000000     2.802000000
H     6.875000000    -0.049000000     2.153000000
H     6.840000000    -0.417000000     3.621000000
O    -0.293000000    -2.859000000    -3.094000000
H     0.416000000    -3.498000000    -3.017000000
H    -1.093000000    -3.376000000    -3.000000000
O     3.648000000    -6.225000000    -3.322000000
H     3.528000000    -5.305000000    -3.086000000
H     4.339000000    -6.534000000    -2.736000000
O    -0.887000000     5.007000000    -2.491000000
H    -1.794000000     4.971000000    -2.188000000
H    -0.397000000     5.345000000    -1.742000000
O    -4.264000000    -1.032000000     5.079000000
H    -3.673000000    -0.892000000     5.819000000
H    -3.708000000    -1.410000000     4.397000000
O     6.624000000    -2.350000000    -4.251000000
H     6.187000000    -2.452000000    -3.405000000
H     7.460000000    -1.935000000    -4.039000000
O     1.074000000    -5.105000000    -1.102000000
H     1.696000000    -4.612000000    -1.636000000
H     0.411000000    -5.407000000    -1.723000000
O    -2.759000000    -0.447000000    -3.033000000
H    -2.030000000    -0.987000000    -2.728000000
H    -3.348000000    -0.392000000    -2.281000000
O     0.376000000     5.484000000     0.042000000
H     1.158000000     5.018000000     0.339000000
H    -0.054000000     5.769000000     0.848000000
O     6.827000000     1.644000000    -1.816000000
H     6.116000000     1.085000000    -2.131000000
H     6.589000000     2.522000000    -2.112000000
