158
-3058.63990
C     1.370000000     0.650000000     0.214000000
H     2.262000000     1.171000000     0.551000000
C     0.066000000     1.191000000     0.500000000
H     0.051000000     2.203000000     0.896000000
C    -1.093000000     0.530000000     0.240000000
H    -2.107000000     1.000000000     0.339000000
C    -1.018000000    -0.705000000    -0.393000000
H    -1.918000000    -1.280000000    -0.597000000
C     0.210000000    -1.228000000    -0.753000000
H     0.350000000    -2.121000000    -1.357000000
C     1.422000000    -0.626000000    -0.361000000
C     2.695000000    -1.373000000    -0.327000000
O     2.743000000    -2.484000000    -0.832000000
O     3.742000000    -0.815000000    -0.025000000
O     0.061000000     0.037000000     3.429000000
H     0.229000000     0.290000000     2.522000000
H     0.681000000    -0.672000000     3.599000000
O     5.697000000    -0.906000000    -5.192000000
H     6.610000000    -0.650000000    -5.061000000
H     5.320000000    -0.906000000    -4.312000000
O    -3.660000000    -3.699000000     0.878000000
H    -4.125000000    -4.096000000     1.615000000
H    -4.101000000    -4.045000000     0.102000000
O     5.589000000    -4.437000000    -3.111000000
H     4.662000000    -4.260000000    -3.271000000
H     5.590000000    -5.104000000    -2.425000000
O    -5.079000000     2.849000000    -0.240000000
H    -4.171000000     3.137000000    -0.147000000
H    -5.041000000     1.898000000    -0.135000000
O    -2.171000000    -1.472000000     2.850000000
H    -1.665000000    -1.015000000     3.522000000
H    -1.557000000    -1.590000000     2.126000000
O     4.321000000    -4.580000000     1.921000000
H     3.416000000    -4.861000000     1.781000000
H     4.616000000    -4.285000000     1.060000000
O    -4.622000000     0.241000000     5.229000000
H    -3.778000000    -0.076000000     5.552000000
H    -4.401000000     0.992000000     4.678000000
O     1.194000000     4.460000000     2.660000000
H     1.120000000     4.938000000     3.485000000
H     1.869000000     3.802000000     2.824000000
O    -5.366000000    -3.811000000    -1.524000000
H    -4.739000000    -3.361000000    -2.089000000
H    -6.158000000    -3.887000000    -2.056000000
O     5.230000000    -3.249000000     4.191000000
H     5.042000000    -3.518000000     3.292000000
H     5.628000000    -2.383000000     4.104000000
O     0.956000000    -4.365000000     0.357000000
H     0.882000000    -5.291000000     0.126000000
H     1.520000000    -3.993000000    -0.321000000
O    -1.152000000     6.031000000     0.382000000
H    -0.200000000     6.083000000     0.297000000
H    -1.341000000     6.457000000     1.218000000
O    -1.190000000     1.016000000    -2.780000000
H    -0.898000000     0.868000000    -1.881000000
H    -1.600000000     0.191000000    -3.039000000
O     0.861000000     1.573000000    -4.542000000
H     0.647000000     1.376000000    -5.454000000
H     0.107000000     1.255000000    -4.046000000
O     1.363000000    -2.324000000     3.035000000
H     1.643000000    -2.946000000     3.706000000
H     1.114000000    -2.871000000     2.290000000
O    -0.932000000    -3.842000000     1.869000000
H    -1.806000000    -3.826000000     1.478000000
H    -0.338000000    -3.925000000     1.123000000
O     4.602000000     3.283000000     0.771000000
H     4.916000000     2.603000000     0.176000000
H     3.909000000     3.728000000     0.283000000
O    -7.395000000     0.653000000     1.150000000
H    -6.471000000     0.429000000     1.258000000
H    -7.629000000     0.299000000     0.292000000
O    -1.413000000     3.465000000     2.763000000
H    -0.680000000     4.040000000     2.540000000
H    -1.718000000     3.785000000     3.612000000
O    -7.106000000    -0.272000000    -1.838000000
H    -7.137000000    -1.092000000    -2.331000000
H    -6.658000000     0.341000000    -2.421000000
O     3.013000000     2.388000000     2.864000000
H     3.584000000     2.796000000     2.213000000
H     3.311000000     1.480000000     2.908000000
O    -0.090000000    -4.152000000    -3.758000000
H    -0.641000000    -4.751000000    -3.254000000
H    -0.485000000    -3.291000000    -3.619000000
O    -5.781000000     5.259000000     1.482000000
H    -5.605000000     6.074000000     1.012000000
H    -5.422000000     4.575000000     0.918000000
O    -2.142000000    -1.672000000    -3.799000000
H    -1.860000000    -1.530000000    -4.702000000
H    -3.062000000    -1.927000000    -3.873000000
O     6.295000000     0.179000000     0.034000000
H     6.910000000     0.679000000    -0.503000000
H     5.438000000     0.360000000    -0.352000000
O     2.855000000    -3.504000000    -3.285000000
H     2.917000000    -3.220000000    -2.373000000
H     1.931000000    -3.723000000    -3.405000000
O    -6.089000000     2.741000000     3.832000000
H    -6.439000000     3.211000000     3.075000000
H    -6.862000000     2.384000000     4.270000000
O     4.046000000    -0.687000000    -2.784000000
H     3.566000000    -1.504000000    -2.646000000
H     4.364000000    -0.447000000    -1.914000000
O     2.590000000    -3.171000000    -6.205000000
H     3.386000000    -2.910000000    -6.668000000
H     2.794000000    -3.030000000    -5.281000000
O     3.656000000    -0.368000000     2.745000000
H     2.790000000    -0.774000000     2.725000000
H     3.993000000    -0.478000000     1.856000000
O    -2.415000000     3.460000000    -3.247000000
H    -1.992000000     2.662000000    -3.565000000
H    -2.380000000     3.386000000    -2.293000000
O    -4.617000000    -0.238000000     0.972000000
H    -4.036000000    -0.969000000     1.183000000
H    -4.256000000     0.503000000     1.460000000
O     5.736000000    -2.835000000    -0.132000000
H     4.834000000    -2.576000000     0.060000000
H     6.250000000    -2.042000000     0.016000000
O    -3.612000000     1.560000000     2.740000000
H    -4.335000000     2.184000000     2.819000000
H    -2.831000000     2.072000000     2.948000000
O    -2.600000000     3.728000000    -0.160000000
H    -2.139000000     3.366000000     0.597000000
H    -2.397000000     4.663000000    -0.139000000
O    -7.768000000     3.185000000    -0.989000000
H    -7.213000000     3.950000000    -1.137000000
H    -7.154000000     2.477000000    -0.794000000
O     0.027000000     4.386000000    -1.842000000
H    -0.388000000     3.904000000    -2.558000000
H    -0.703000000     4.756000000    -1.347000000
O     2.016000000     6.244000000     0.436000000
H     1.789000000     5.767000000     1.235000000
H     2.570000000     5.638000000    -0.055000000
O     2.504000000     3.605000000    -0.869000000
H     2.485000000     2.714000000    -1.219000000
H     1.616000000     3.936000000    -1.008000000
O     3.250000000     2.003000000    -3.207000000
H     3.387000000     1.057000000    -3.243000000
H     2.451000000     2.150000000    -3.713000000
O     6.482000000    -0.209000000     2.722000000
H     6.277000000    -0.246000000     1.787000000
H     5.680000000     0.119000000     3.130000000
O    -2.065000000    -5.598000000    -2.582000000
H    -2.066000000    -5.863000000    -3.502000000
H    -2.861000000    -5.988000000    -2.220000000
O    -4.537000000    -2.152000000     3.903000000
H    -3.628000000    -2.071000000     3.612000000
H    -4.829000000    -1.249000000     4.027000000
O    -0.405000000    -6.773000000    -0.643000000
H    -1.004000000    -6.281000000    -1.204000000
H     0.073000000    -7.342000000    -1.245000000
O    -5.711000000     1.956000000    -3.363000000
H    -4.919000000     2.295000000    -2.946000000
H    -6.153000000     2.734000000    -3.705000000
O     5.362000000     2.354000000    -1.636000000
H     4.713000000     2.361000000    -2.340000000
H     5.890000000     3.138000000    -1.789000000
O     0.536000000     1.721000000     5.616000000
H     0.409000000     0.990000000     6.222000000
H     0.214000000     1.393000000     4.776000000
