158
-3023.35068
C     1.031000000     0.917000000    -0.483000000
H     1.799000000     1.604000000    -0.830000000
C    -0.356000000     1.085000000    -0.671000000
H    -0.880000000     1.941000000    -1.087000000
C    -1.209000000     0.125000000    -0.207000000
H    -2.266000000     0.314000000    -0.287000000
C    -0.733000000    -0.974000000     0.454000000
H    -1.456000000    -1.681000000     0.852000000
C     0.595000000    -1.136000000     0.587000000
H     0.997000000    -1.986000000     1.133000000
C     1.536000000    -0.242000000     0.128000000
C     3.057000000    -0.416000000     0.335000000
O     3.391000000    -1.546000000     0.704000000
O     3.833000000     0.544000000     0.375000000
O    -0.329000000    -0.247000000     3.397000000
H     0.359000000    -0.447000000     2.762000000
H    -0.328000000    -0.995000000     3.994000000
O     0.270000000     4.711000000    -4.799000000
H     0.996000000     4.237000000    -4.394000000
H     0.562000000     5.623000000    -4.823000000
O    -2.761000000    -3.637000000     2.316000000
H    -3.152000000    -2.783000000     2.131000000
H    -3.155000000    -4.225000000     1.672000000
O     3.631000000     0.959000000    -2.489000000
H     3.747000000     0.670000000    -1.584000000
H     4.521000000     1.118000000    -2.805000000
O    -4.398000000     5.486000000    -1.015000000
H    -3.737000000     5.022000000    -0.501000000
H    -5.007000000     5.835000000    -0.364000000
O    -1.659000000     2.337000000     2.154000000
H    -1.301000000     1.464000000     2.312000000
H    -1.941000000     2.639000000     3.017000000
O     3.086000000    -0.826000000     3.293000000
H     2.894000000    -1.654000000     3.733000000
H     3.416000000    -1.083000000     2.432000000
O     2.849000000    -2.776000000    -2.039000000
H     3.645000000    -3.259000000    -2.262000000
H     2.873000000    -2.703000000    -1.085000000
O     0.938000000    -4.033000000    -3.681000000
H     0.575000000    -3.476000000    -4.369000000
H     1.513000000    -3.453000000    -3.181000000
O    -4.576000000     1.428000000     1.623000000
H    -4.758000000     0.555000000     1.970000000
H    -3.751000000     1.682000000     2.036000000
O     5.002000000     4.959000000     1.523000000
H     4.563000000     4.577000000     0.763000000
H     4.728000000     4.410000000     2.258000000
O    -2.993000000    -0.809000000     3.736000000
H    -2.906000000    -1.671000000     4.144000000
H    -2.095000000    -0.547000000     3.536000000
O     2.668000000    -3.615000000     3.838000000
H     2.319000000    -3.774000000     4.715000000
H     2.163000000    -4.197000000     3.270000000
O    -0.303000000    -4.757000000    -0.300000000
H     0.549000000    -4.490000000    -0.644000000
H    -0.938000000    -4.322000000    -0.869000000
O    -2.726000000     3.896000000     0.199000000
H    -2.535000000     3.107000000     0.706000000
H    -2.461000000     4.618000000     0.769000000
O    -1.165000000     2.636000000    -3.642000000
H    -1.102000000     3.548000000    -3.928000000
H    -1.866000000     2.637000000    -2.991000000
O     0.957000000    -5.116000000     2.126000000
H     0.717000000    -4.726000000     1.285000000
H     0.518000000    -5.967000000     2.128000000
O    -0.228000000    -2.294000000     5.469000000
H    -0.208000000    -1.554000000     6.076000000
H     0.392000000    -2.923000000     5.837000000
O    -5.716000000     1.884000000    -4.657000000
H    -5.671000000     1.836000000    -3.702000000
H    -5.229000000     1.117000000    -4.958000000
O    -1.841000000    -4.600000000     4.564000000
H    -1.334000000    -3.789000000     4.587000000
H    -2.424000000    -4.496000000     3.812000000
O     2.195000000     5.611000000    -1.431000000
H     2.918000000     6.220000000    -1.579000000
H     1.435000000     6.040000000    -1.824000000
O    -6.237000000     1.308000000    -1.673000000
H    -5.534000000     1.673000000    -1.135000000
H    -7.029000000     1.744000000    -1.360000000
O     4.717000000    -5.188000000     2.461000000
H     4.549000000    -5.577000000     1.603000000
H     3.899000000    -4.746000000     2.688000000
O     1.467000000     4.427000000     0.895000000
H     1.833000000     4.867000000     0.127000000
H     0.554000000     4.257000000     0.660000000
O    -1.684000000    -0.074000000    -3.528000000
H    -1.104000000     0.095000000    -2.786000000
H    -1.622000000     0.715000000    -4.066000000
O    -6.476000000    -1.010000000    -2.974000000
H    -6.954000000    -1.333000000    -2.210000000
H    -6.351000000    -0.077000000    -2.801000000
O     8.275000000     0.349000000    -0.204000000
H     8.549000000     0.133000000    -1.095000000
H     8.281000000     1.306000000    -0.176000000
O     5.248000000    -4.275000000    -1.720000000
H     4.591000000    -4.908000000    -1.429000000
H     5.463000000    -3.776000000    -0.932000000
O    -4.259000000    -0.188000000    -5.333000000
H    -4.016000000    -0.104000000    -4.411000000
H    -4.149000000    -1.119000000    -5.525000000
O    -0.460000000    -2.146000000    -5.170000000
H    -0.237000000    -1.704000000    -5.989000000
H    -0.935000000    -1.488000000    -4.663000000
O     7.300000000     2.853000000     2.053000000
H     7.459000000     2.735000000     2.990000000
H     6.887000000     3.714000000     1.987000000
O     2.515000000    -1.037000000    -3.849000000
H     2.760000000    -0.296000000    -3.295000000
H     2.443000000    -1.775000000    -3.243000000
O    -4.570000000    -2.725000000    -3.222000000
H    -4.457000000    -3.008000000    -4.129000000
H    -5.221000000    -2.025000000    -3.268000000
O    -2.349000000     2.705000000     4.592000000
H    -2.393000000     2.342000000     5.477000000
H    -2.675000000     3.601000000     4.685000000
O     5.810000000     0.134000000     2.117000000
H     6.272000000     0.955000000     1.949000000
H     5.049000000     0.164000000     1.538000000
O    -3.412000000     2.951000000    -2.184000000
H    -4.256000000     3.388000000    -2.299000000
H    -3.022000000     3.381000000    -1.423000000
O     6.068000000    -2.703000000     0.325000000
H     5.182000000    -2.517000000     0.636000000
H     6.608000000    -2.018000000     0.721000000
O    -6.298000000     3.677000000     1.713000000
H    -6.976000000     3.254000000     1.185000000
H    -5.593000000     3.032000000     1.759000000
O     0.844000000     1.207000000    -4.878000000
H     0.865000000     0.509000000    -4.223000000
H     0.169000000     1.809000000    -4.564000000
O     7.600000000    -1.096000000     3.716000000
H     7.883000000    -1.731000000     3.059000000
H     6.861000000    -0.643000000     3.309000000
O     2.349000000     3.588000000    -3.252000000
H     2.484000000     4.120000000    -2.468000000
H     2.704000000     2.729000000    -3.023000000
O     3.100000000     1.754000000     4.559000000
H     2.234000000     2.020000000     4.871000000
H     2.941000000     0.946000000     4.071000000
O    -4.844000000    -3.249000000    -0.450000000
H    -5.767000000    -2.993000000    -0.448000000
H    -4.576000000    -3.170000000    -1.366000000
O     5.316000000    -1.604000000     5.130000000
H     4.851000000    -1.254000000     4.371000000
H     6.239000000    -1.422000000     4.950000000
O    -1.790000000    -2.519000000    -2.096000000
H    -2.662000000    -2.721000000    -2.436000000
H    -1.767000000    -1.563000000    -2.049000000
O     5.656000000     3.824000000    -1.496000000
H     5.672000000     4.662000000    -1.958000000
H     4.765000000     3.756000000    -1.154000000
O     3.599000000     3.175000000     0.090000000
H     3.666000000     2.222000000     0.151000000
H     2.749000000     3.381000000     0.477000000
O     7.010000000    -3.629000000     2.958000000
H     7.257000000    -3.212000000     2.132000000
H     6.295000000    -4.221000000     2.723000000
