158
-3076.27907
C     1.252000000     0.751000000    -0.190000000
H     2.084000000     1.382000000    -0.490000000
C    -0.073000000     1.346000000    -0.166000000
H    -0.230000000     2.398000000    -0.391000000
C    -1.117000000     0.496000000     0.106000000
H    -2.132000000     0.954000000     0.118000000
C    -0.948000000    -0.873000000     0.262000000
H    -1.834000000    -1.502000000     0.258000000
C     0.326000000    -1.428000000     0.281000000
H     0.484000000    -2.500000000     0.360000000
C     1.458000000    -0.615000000     0.065000000
C     2.845000000    -1.199000000    -0.024000000
O     3.105000000    -2.261000000     0.524000000
O     3.706000000    -0.601000000    -0.643000000
O     1.769000000    -1.599000000     3.588000000
H     1.352000000    -2.247000000     3.021000000
H     1.849000000    -2.038000000     4.435000000
O    -2.550000000    -4.102000000     1.806000000
H    -3.427000000    -3.854000000     2.098000000
H    -2.387000000    -3.551000000     1.040000000
O     4.285000000    -0.671000000    -3.534000000
H     3.935000000    -0.804000000    -2.653000000
H     4.502000000    -1.552000000    -3.841000000
O     3.687000000     4.878000000     1.622000000
H     3.144000000     4.131000000     1.874000000
H     4.554000000     4.673000000     1.972000000
O     1.743000000     2.840000000     1.969000000
H     1.874000000     2.040000000     2.477000000
H     1.315000000     2.546000000     1.165000000
O     4.729000000    -2.353000000     2.578000000
H     3.925000000    -2.137000000     2.105000000
H     5.365000000    -2.551000000     1.890000000
O     4.111000000    -4.896000000     0.396000000
H     5.048000000    -4.969000000     0.577000000
H     3.959000000    -3.956000000     0.294000000
O     5.892000000     1.774000000    -4.439000000
H     4.947000000     1.802000000    -4.290000000
H     6.148000000     2.691000000    -4.532000000
O     2.754000000    -6.650000000    -1.241000000
H     3.183000000    -6.490000000    -0.401000000
H     2.130000000    -7.353000000    -1.062000000
O     1.483000000     4.538000000    -0.482000000
H     2.137000000     4.799000000     0.166000000
H     1.994000000     4.178000000    -1.207000000
O    -6.168000000     1.498000000     2.025000000
H    -6.956000000     1.116000000     1.638000000
H    -5.622000000     0.744000000     2.248000000
O    -1.220000000     0.019000000     3.810000000
H    -1.411000000     0.948000000     3.936000000
H    -0.376000000     0.007000000     3.360000000
O     3.670000000     0.207000000    -6.041000000
H     2.829000000    -0.250000000    -6.047000000
H     4.012000000     0.069000000    -5.158000000
O     4.247000000    -4.764000000     4.323000000
H     3.957000000    -4.688000000     5.233000000
H     4.325000000    -3.859000000     4.021000000
O    -0.495000000    -5.666000000     0.506000000
H    -0.411000000    -5.120000000    -0.275000000
H    -1.154000000    -5.222000000     1.040000000
O    -3.870000000     3.257000000     1.453000000
H    -3.492000000     3.514000000     0.613000000
H    -4.739000000     2.921000000     1.232000000
O    -2.429000000     2.383000000    -3.110000000
H    -2.774000000     2.857000000    -3.866000000
H    -3.023000000     2.608000000    -2.394000000
O     1.412000000    -4.369000000     2.282000000
H     2.203000000    -4.130000000     1.798000000
H     1.210000000    -5.257000000     1.986000000
O    -0.701000000    -3.990000000     4.252000000
H    -1.469000000    -3.807000000     3.710000000
H     0.029000000    -4.008000000     3.633000000
O     4.440000000     3.439000000    -1.393000000
H     4.875000000     2.670000000    -1.026000000
H     4.761000000     4.171000000    -0.866000000
O    -3.182000000     4.199000000    -0.886000000
H    -2.335000000     4.565000000    -0.632000000
H    -3.741000000     4.964000000    -1.027000000
O    -4.586000000    -0.595000000    -0.869000000
H    -4.613000000    -1.547000000    -0.962000000
H    -4.233000000    -0.449000000     0.008000000
O     5.199000000     1.880000000     2.485000000
H     5.294000000     2.628000000     3.075000000
H     5.481000000     1.128000000     3.006000000
O    -0.995000000    -0.033000000    -3.118000000
H    -0.473000000    -0.181000000    -2.329000000
H    -1.288000000     0.875000000    -3.044000000
O    -5.625000000     1.958000000    -1.714000000
H    -4.993000000     1.294000000    -1.439000000
H    -6.469000000     1.627000000    -1.407000000
O    -7.474000000    -0.301000000    -3.355000000
H    -8.086000000     0.000000000    -4.027000000
H    -6.643000000     0.116000000    -3.584000000
O    -5.167000000     6.423000000     1.574000000
H    -5.141000000     7.137000000     2.211000000
H    -4.336000000     5.965000000     1.694000000
O     2.171000000    -3.735000000    -1.783000000
H     2.160000000    -3.475000000    -0.862000000
H     2.256000000    -4.688000000    -1.762000000
O     5.460000000    -3.076000000    -3.947000000
H     6.402000000    -3.225000000    -3.859000000
H     5.058000000    -3.803000000    -3.471000000
O    -3.305000000    -1.801000000    -3.319000000
H    -2.477000000    -1.373000000    -3.538000000
H    -3.802000000    -1.134000000    -2.846000000
O    -2.346000000     5.656000000     2.127000000
H    -2.823000000     4.834000000     2.012000000
H    -1.666000000     5.635000000     1.454000000
O    -4.225000000    -0.797000000     1.892000000
H    -4.705000000    -1.617000000     2.012000000
H    -3.522000000    -0.834000000     2.541000000
O     8.081000000     0.639000000     0.919000000
H     8.389000000     1.125000000     1.684000000
H     7.791000000     1.315000000     0.306000000
O    -1.029000000     5.522000000    -0.216000000
H    -0.994000000     6.119000000    -0.963000000
H    -0.184000000     5.074000000    -0.227000000
O     6.234000000    -2.012000000     0.425000000
H     5.382000000    -1.806000000     0.040000000
H     6.850000000    -1.446000000    -0.040000000
O    -4.976000000     1.781000000     4.673000000
H    -5.279000000     2.105000000     3.825000000
H    -4.314000000     2.415000000     4.949000000
O     2.410000000     0.905000000     3.584000000
H     2.223000000    -0.024000000     3.444000000
H     3.358000000     0.943000000     3.707000000
O     7.184000000     0.777000000    -2.191000000
H     6.547000000     1.041000000    -1.527000000
H     6.706000000     0.834000000    -3.018000000
O     3.276000000     3.187000000    -3.737000000
H     2.708000000     2.418000000    -3.697000000
H     3.842000000     3.107000000    -2.970000000
O     5.444000000    -0.252000000     4.193000000
H     5.431000000    -0.863000000     3.456000000
H     6.360000000    -0.228000000     4.468000000
O    -5.180000000    -3.214000000     2.658000000
H    -5.638000000    -3.837000000     2.094000000
H    -5.249000000    -3.590000000     3.536000000
O    -2.950000000    -3.313000000    -0.785000000
H    -3.798000000    -3.580000000    -1.138000000
H    -2.514000000    -2.874000000    -1.516000000
O     6.818000000    -4.657000000     0.478000000
H     6.725000000    -3.704000000     0.487000000
H     7.409000000    -4.833000000    -0.255000000
O    -3.621000000    -0.879000000     4.542000000
H    -4.154000000    -0.087000000     4.600000000
H    -2.721000000    -0.559000000     4.484000000
O     0.742000000    -2.814000000    -4.027000000
H     0.287000000    -1.972000000    -4.007000000
H     1.087000000    -2.921000000    -3.141000000
O     5.574000000     1.443000000    -0.133000000
H     4.925000000     0.751000000    -0.256000000
H     5.712000000     1.477000000     0.814000000
O    -1.197000000     3.038000000     4.110000000
H    -1.804000000     3.342000000     3.435000000
H    -1.607000000     3.297000000     4.935000000
O     2.688000000    -6.897000000     1.843000000
H     3.227000000    -7.163000000     2.588000000
H     3.189000000    -6.199000000     1.421000000
