158
-3020.15739
C     1.413000000     0.262000000    -0.384000000
H     2.441000000     0.541000000    -0.602000000
C     0.343000000     1.187000000    -0.511000000
H     0.440000000     2.248000000    -0.725000000
C    -0.945000000     0.794000000    -0.156000000
H    -1.836000000     1.501000000    -0.186000000
C    -1.174000000    -0.517000000     0.291000000
H    -2.206000000    -0.623000000     0.614000000
C    -0.136000000    -1.464000000     0.392000000
H    -0.263000000    -2.437000000     0.861000000
C     1.156000000    -1.053000000     0.079000000
C     2.297000000    -2.104000000     0.174000000
O     2.216000000    -3.258000000     0.602000000
O     3.382000000    -1.711000000    -0.232000000
O     0.921000000    -4.836000000     4.347000000
H     0.229000000    -5.314000000     4.805000000
H     1.533000000    -4.581000000     5.037000000
O     7.963000000    -0.274000000     0.819000000
H     8.658000000     0.228000000     0.392000000
H     7.340000000    -0.465000000     0.118000000
O    -2.366000000    -6.433000000     3.151000000
H    -2.841000000    -5.645000000     2.888000000
H    -1.891000000    -6.700000000     2.365000000
O     4.413000000    -2.422000000    -2.684000000
H     3.944000000    -2.213000000    -1.877000000
H     4.228000000    -3.349000000    -2.835000000
O     2.648000000     1.842000000     2.747000000
H     3.600000000     1.785000000     2.831000000
H     2.504000000     2.570000000     2.144000000
O     3.814000000    -2.673000000     2.619000000
H     4.686000000    -2.721000000     2.227000000
H     3.218000000    -2.905000000     1.907000000
O     3.375000000    -5.514000000    -0.425000000
H     4.223000000    -5.275000000    -0.799000000
H     3.079000000    -4.721000000     0.022000000
O     1.379000000    -7.567000000    -0.488000000
H     1.019000000    -7.441000000     0.390000000
H     2.151000000    -7.003000000    -0.514000000
O     2.615000000     4.204000000     1.345000000
H     2.624000000     3.946000000     0.423000000
H     1.753000000     4.598000000     1.475000000
O    -0.990000000     1.162000000    -5.229000000
H    -1.281000000     1.784000000    -4.563000000
H    -1.160000000     0.302000000    -4.844000000
O     0.131000000     0.901000000     2.930000000
H     1.019000000     1.209000000     2.745000000
H    -0.223000000     0.663000000     2.074000000
O     3.408000000    -0.855000000    -4.611000000
H     2.480000000    -1.048000000    -4.475000000
H     3.862000000    -1.388000000    -3.958000000
O    -1.311000000    -6.271000000     0.317000000
H    -1.895000000    -5.534000000     0.136000000
H    -0.594000000    -5.890000000     0.823000000
O    -4.253000000     2.872000000     1.863000000
H    -4.038000000     2.925000000     0.931000000
H    -5.206000000     2.786000000     1.883000000
O    -3.570000000     3.003000000    -5.138000000
H    -3.172000000     3.191000000    -4.288000000
H    -3.966000000     2.138000000    -5.031000000
O     0.762000000    -5.407000000     1.708000000
H     0.732000000    -5.135000000     2.626000000
H     1.206000000    -4.687000000     1.260000000
O     4.809000000     2.244000000    -1.346000000
H     4.882000000     1.441000000    -0.831000000
H     5.600000000     2.738000000    -1.133000000
O    -4.052000000     4.483000000    -0.700000000
H    -3.926000000     5.401000000    -0.459000000
H    -4.997000000     4.396000000    -0.824000000
O    -4.628000000    -0.822000000    -0.352000000
H    -4.009000000    -1.054000000    -1.044000000
H    -5.065000000    -0.034000000    -0.675000000
O    -1.657000000    -0.461000000    -3.172000000
H    -1.180000000    -0.172000000    -2.394000000
H    -2.221000000    -1.168000000    -2.858000000
O    -4.364000000     7.005000000     2.605000000
H    -4.748000000     6.836000000     3.466000000
H    -3.764000000     6.273000000     2.462000000
O    -4.789000000     0.664000000    -5.070000000
H    -4.755000000     0.482000000    -6.009000000
H    -4.696000000    -0.194000000    -4.656000000
O    -1.229000000    -3.524000000     5.446000000
H    -0.511000000    -3.130000000     5.941000000
H    -1.301000000    -2.984000000     4.658000000
O    -6.600000000     1.884000000     1.821000000
H    -7.242000000     1.205000000     2.032000000
H    -6.975000000     2.341000000     1.069000000
O     1.948000000    -4.200000000    -2.574000000
H     1.400000000    -3.860000000    -1.867000000
H     2.435000000    -4.921000000    -2.175000000
O     5.743000000    -4.959000000    -2.275000000
H     6.451000000    -4.315000000    -2.263000000
H     6.182000000    -5.801000000    -2.156000000
O    -2.491000000    -2.825000000    -1.750000000
H    -2.809000000    -3.107000000    -0.893000000
H    -2.815000000    -3.490000000    -2.357000000
O    -2.548000000     4.972000000     2.591000000
H    -3.171000000     4.255000000     2.477000000
H    -1.852000000     4.787000000     1.960000000
O    -4.643000000    -1.308000000     2.330000000
H    -4.830000000    -1.050000000     1.427000000
H    -4.384000000    -0.495000000     2.763000000
O    -0.276000000     4.528000000     0.708000000
H     0.009000000     5.266000000     1.248000000
H    -0.250000000     4.862000000    -0.188000000
O    -2.285000000     7.029000000    -0.232000000
H    -1.983000000     7.357000000     0.615000000
H    -1.489000000     6.953000000    -0.758000000
O    -2.288000000     3.945000000    -2.832000000
H    -1.536000000     4.166000000    -2.282000000
H    -3.046000000     4.260000000    -2.340000000
O     5.744000000    -2.835000000     0.513000000
H     4.971000000    -2.536000000     0.035000000
H     6.483000000    -2.461000000     0.034000000
O    -0.162000000     5.293000000    -2.039000000
H     0.730000000     5.540000000    -1.794000000
H    -0.137000000     5.223000000    -2.994000000
O    -6.426000000    -3.017000000     0.066000000
H    -6.181000000    -3.777000000    -0.463000000
H    -5.798000000    -2.339000000    -0.184000000
O    -4.204000000     0.961000000     4.022000000
H    -3.823000000     1.300000000     4.833000000
H    -4.309000000     1.732000000     3.466000000
O     2.408000000     6.105000000    -1.480000000
H     2.209000000     7.035000000    -1.373000000
H     3.344000000     6.081000000    -1.676000000
O     2.451000000    -1.256000000     4.640000000
H     1.680000000    -1.548000000     4.153000000
H     3.181000000    -1.385000000     4.034000000
O     7.029000000    -1.611000000    -1.584000000
H     6.155000000    -1.799000000    -1.927000000
H     7.356000000    -0.902000000    -2.137000000
O     3.283000000     1.861000000    -3.696000000
H     3.299000000     0.937000000    -3.944000000
H     3.728000000     1.890000000    -2.849000000
O     5.102000000    -3.379000000     5.249000000
H     4.695000000    -3.478000000     4.388000000
H     5.838000000    -3.991000000     5.237000000
O    -4.697000000    -3.997000000     2.958000000
H    -5.242000000    -4.687000000     2.578000000
H    -5.069000000    -3.183000000     2.620000000
O    -3.118000000    -4.039000000     0.526000000
H    -3.510000000    -3.826000000     1.373000000
H    -3.802000000    -4.518000000     0.059000000
O    -1.532000000    -1.578000000     3.498000000
H    -2.356000000    -1.526000000     3.014000000
H    -1.112000000    -0.731000000     3.349000000
O     0.723000000    -1.474000000    -4.343000000
H     0.022000000    -0.947000000    -3.959000000
H     0.571000000    -2.357000000    -4.006000000
O     5.049000000     0.411000000     0.699000000
H     4.415000000    -0.224000000     0.367000000
H     5.061000000     0.266000000     1.645000000
O    -0.731000000     2.920000000     5.105000000
H    -0.468000000     2.171000000     4.570000000
H    -0.726000000     2.587000000     6.002000000
O     1.268000000    -8.050000000     2.626000000
H     0.437000000    -8.409000000     2.315000000
H     1.194000000    -7.108000000     2.473000000
