158
-3014.24115
C     1.169000000     0.232000000    -0.915000000
H     1.904000000     0.514000000    -1.665000000
C    -0.126000000     0.823000000    -0.994000000
H    -0.339000000     1.511000000    -1.808000000
C    -1.164000000     0.436000000    -0.161000000
H    -2.079000000     0.979000000    -0.217000000
C    -0.912000000    -0.455000000     0.901000000
H    -1.618000000    -0.663000000     1.701000000
C     0.396000000    -0.984000000     1.064000000
H     0.574000000    -1.673000000     1.886000000
C     1.457000000    -0.625000000     0.167000000
C     2.822000000    -1.242000000     0.311000000
O     3.015000000    -2.139000000     1.125000000
O     3.776000000    -0.722000000    -0.198000000
O    -4.249000000     5.275000000    -1.114000000
H    -3.612000000     5.400000000    -0.410000000
H    -3.931000000     5.830000000    -1.826000000
O    -3.315000000     1.798000000     4.805000000
H    -3.714000000     1.161000000     5.397000000
H    -3.091000000     2.540000000     5.367000000
O     3.523000000    -5.031000000     0.751000000
H     3.929000000    -5.326000000     1.566000000
H     3.442000000    -4.083000000     0.854000000
O     4.887000000    -2.598000000    -1.756000000
H     4.387000000    -2.044000000    -1.157000000
H     5.797000000    -2.333000000    -1.624000000
O     3.155000000     5.012000000    -0.270000000
H     2.842000000     4.624000000     0.547000000
H     2.787000000     4.455000000    -0.956000000
O     1.545000000    -4.447000000     5.152000000
H     1.284000000    -5.364000000     5.071000000
H     1.294000000    -4.051000000     4.318000000
O     1.482000000    -3.732000000     2.582000000
H     1.220000000    -4.341000000     1.891000000
H     1.887000000    -3.001000000     2.116000000
O     2.024000000     0.750000000    -5.296000000
H     2.418000000     0.092000000    -4.723000000
H     1.162000000     0.395000000    -5.512000000
O     5.611000000    -5.274000000    -1.686000000
H     5.656000000    -4.331000000    -1.528000000
H     4.695000000    -5.500000000    -1.529000000
O    -2.723000000    -5.258000000    -0.098000000
H    -2.562000000    -5.583000000     0.787000000
H    -1.896000000    -4.854000000    -0.360000000
O     1.316000000    -3.597000000    -4.767000000
H     1.040000000    -2.998000000    -5.460000000
H     0.975000000    -3.205000000    -3.963000000
O    -1.597000000    -1.303000000     5.186000000
H    -2.333000000    -1.786000000     4.810000000
H    -1.402000000    -0.624000000     4.541000000
O    -0.085000000     4.684000000    -2.635000000
H    -0.868000000     4.301000000    -3.032000000
H     0.586000000     4.008000000    -2.728000000
O     0.181000000    -2.190000000    -2.663000000
H    -0.580000000    -1.660000000    -2.898000000
H     0.462000000    -1.844000000    -1.816000000
O    -2.704000000     2.559000000     1.832000000
H    -2.898000000     2.018000000     2.598000000
H    -3.476000000     2.470000000     1.274000000
O    -4.778000000     2.660000000    -0.018000000
H    -5.485000000     2.293000000    -0.549000000
H    -4.814000000     3.601000000    -0.190000000
O     7.093000000    -4.033000000     1.280000000
H     7.625000000    -3.358000000     1.700000000
H     6.257000000    -4.004000000     1.746000000
O     6.220000000    -1.018000000    -4.213000000
H     6.863000000    -0.366000000    -4.491000000
H     6.639000000    -1.474000000    -3.483000000
O    -1.258000000     1.465000000    -4.703000000
H    -1.442000000     2.394000000    -4.561000000
H    -1.961000000     1.008000000    -4.240000000
O     3.567000000    -1.173000000    -3.727000000
H     4.463000000    -1.195000000    -4.062000000
H     3.572000000    -1.784000000    -2.990000000
O     1.739000000     2.704000000    -2.984000000
H     2.489000000     2.448000000    -2.447000000
H     1.926000000     2.338000000    -3.848000000
O     7.863000000    -1.084000000     0.439000000
H     7.948000000    -1.343000000    -0.479000000
H     6.960000000    -1.308000000     0.668000000
O    -4.497000000     0.840000000    -3.597000000
H    -5.264000000     1.357000000    -3.351000000
H    -4.269000000     1.150000000    -4.473000000
O    -6.874000000     2.028000000    -1.652000000
H    -7.446000000     2.523000000    -2.239000000
H    -7.469000000     1.635000000    -1.013000000
O    -2.772000000    -1.484000000    -2.600000000
H    -3.016000000    -1.477000000    -1.674000000
H    -3.358000000    -2.128000000    -2.997000000
O    -2.626000000     3.526000000    -3.441000000
H    -2.886000000     2.724000000    -2.987000000
H    -3.448000000     3.997000000    -3.583000000
O    -0.884000000     0.790000000     3.711000000
H    -0.857000000     1.053000000     2.791000000
H    -1.498000000     1.401000000     4.117000000
O     2.050000000    -6.079000000    -1.786000000
H     2.325000000    -5.748000000    -0.931000000
H     1.288000000    -5.548000000    -2.015000000
O     1.785000000     3.618000000     1.820000000
H     0.974000000     3.409000000     1.356000000
H     1.904000000     2.892000000     2.433000000
O    -0.618000000     3.968000000     0.504000000
H    -1.443000000     3.532000000     0.719000000
H    -0.546000000     3.890000000    -0.447000000
O     4.561000000     0.355000000     4.281000000
H     4.826000000    -0.264000000     3.600000000
H     4.891000000    -0.027000000     5.094000000
O     1.290000000    -0.744000000     5.232000000
H     1.721000000    -1.113000000     6.002000000
H     0.430000000    -1.162000000     5.214000000
O    -2.836000000     4.887000000     3.281000000
H    -2.023000000     4.921000000     3.785000000
H    -2.819000000     4.030000000     2.856000000
O    -2.237000000     6.193000000     0.835000000
H    -1.463000000     5.635000000     0.756000000
H    -2.381000000     6.269000000     1.778000000
O     6.804000000    -2.790000000     4.864000000
H     7.392000000    -2.038000000     4.795000000
H     6.084000000    -2.588000000     4.266000000
O    -5.562000000    -1.425000000    -2.138000000
H    -5.443000000    -0.562000000    -2.534000000
H    -6.503000000    -1.484000000    -1.970000000
O    -3.227000000    -3.184000000     3.147000000
H    -3.805000000    -3.187000000     2.385000000
H    -2.591000000    -3.876000000     2.968000000
O     4.935000000     0.963000000    -1.731000000
H     4.563000000     0.396000000    -1.056000000
H     4.765000000     0.502000000    -2.552000000
O     4.688000000     3.438000000    -2.940000000
H     5.153000000     3.282000000    -3.762000000
H     4.927000000     2.695000000    -2.386000000
O    -4.190000000    -4.065000000    -1.885000000
H    -4.793000000    -3.398000000    -1.557000000
H    -3.771000000    -4.416000000    -1.099000000
O    -5.411000000    -3.423000000     1.011000000
H    -5.343000000    -4.266000000     1.460000000
H    -6.297000000    -3.119000000     1.205000000
O    -5.985000000     2.060000000     3.385000000
H    -6.356000000     1.384000000     3.952000000
H    -5.418000000     2.572000000     3.962000000
O     4.143000000    -3.091000000     3.748000000
H     3.359000000    -3.391000000     4.209000000
H     3.824000000    -2.815000000     2.888000000
O     6.000000000     2.190000000     0.458000000
H     6.903000000     2.144000000     0.145000000
H     5.483000000     1.795000000    -0.244000000
O    -2.589000000    -1.146000000    -5.246000000
H    -2.656000000    -1.225000000    -4.295000000
H    -3.070000000    -0.345000000    -5.454000000
O     5.417000000    -0.758000000     2.028000000
H     4.709000000    -0.904000000     1.400000000
H     5.609000000     0.177000000     1.959000000
O     2.074000000     1.168000000     3.327000000
H     1.588000000     0.422000000     3.679000000
H     2.974000000     1.030000000     3.623000000
O     5.303000000    -5.841000000     3.092000000
H     6.177000000    -6.224000000     3.169000000
H     5.311000000    -5.101000000     3.699000000
