158
-3033.13729
C     0.903000000     0.131000000     1.152000000
H     1.584000000     0.424000000     1.948000000
C     0.511000000     1.174000000     0.322000000
H     0.829000000     2.209000000     0.411000000
C    -0.265000000     0.865000000    -0.755000000
H    -0.566000000     1.684000000    -1.401000000
C    -0.789000000    -0.433000000    -0.984000000
H    -1.478000000    -0.708000000    -1.778000000
C    -0.364000000    -1.440000000    -0.136000000
H    -0.694000000    -2.466000000    -0.282000000
C     0.447000000    -1.176000000     0.985000000
C     0.794000000    -2.264000000     1.934000000
O     0.308000000    -3.405000000     1.735000000
O     1.399000000    -2.040000000     2.946000000
O     1.714000000     3.244000000     3.361000000
H     1.628000000     4.150000000     3.660000000
H     2.657000000     3.111000000     3.267000000
O     2.882000000     4.993000000    -3.973000000
H     3.721000000     4.712000000    -4.340000000
H     2.258000000     4.328000000    -4.266000000
O    -4.381000000     4.503000000    -1.494000000
H    -3.482000000     4.516000000    -1.167000000
H    -4.334000000     4.947000000    -2.341000000
O     4.032000000    -1.302000000     3.159000000
H     3.182000000    -1.688000000     2.946000000
H     4.430000000    -1.116000000     2.309000000
O    -0.692000000     5.084000000     1.971000000
H    -0.484000000     4.243000000     2.378000000
H     0.161000000     5.476000000     1.782000000
O    -0.320000000     1.454000000    -6.773000000
H    -0.933000000     1.136000000    -7.436000000
H     0.488000000     1.625000000    -7.256000000
O     3.874000000     3.726000000    -0.494000000
H     4.288000000     2.867000000    -0.409000000
H     4.296000000     4.121000000    -1.257000000
O     4.264000000    -3.575000000    -0.830000000
H     3.789000000    -4.192000000    -0.274000000
H     4.267000000    -3.984000000    -1.696000000
O     1.502000000    -4.445000000    -0.377000000
H     1.103000000    -3.995000000     0.368000000
H     1.752000000    -5.302000000    -0.032000000
O    -5.809000000    -2.580000000    -3.301000000
H    -5.019000000    -2.186000000    -3.671000000
H    -5.748000000    -2.403000000    -2.362000000
O     2.923000000    -4.255000000     2.897000000
H     2.412000000    -3.459000000     3.041000000
H     2.302000000    -4.968000000     3.045000000
O    -2.787000000    -5.524000000    -0.473000000
H    -3.066000000    -6.433000000    -0.582000000
H    -2.025000000    -5.574000000     0.104000000
O    -3.259000000     4.076000000    -4.552000000
H    -3.920000000     4.039000000    -5.243000000
H    -3.496000000     4.846000000    -4.034000000
O     4.345000000     2.988000000     2.769000000
H     4.908000000     2.701000000     3.489000000
H     4.681000000     2.524000000     2.003000000
O    -0.950000000     3.665000000    -2.989000000
H    -0.096000000     3.646000000    -3.421000000
H    -1.574000000     3.818000000    -3.698000000
O     0.736000000    -3.628000000     5.602000000
H     0.289000000    -3.020000000     6.191000000
H     0.655000000    -3.225000000     4.737000000
O    -5.462000000     3.388000000     0.645000000
H    -6.271000000     3.003000000     0.309000000
H    -5.088000000     3.852000000    -0.104000000
O    -2.287000000    -2.690000000     3.265000000
H    -2.881000000    -2.877000000     2.537000000
H    -1.450000000    -3.066000000     2.994000000
O     4.810000000    -1.214000000     0.408000000
H     5.684000000    -1.093000000     0.036000000
H     4.476000000    -2.004000000    -0.017000000
O    -1.826000000    -1.885000000     6.369000000
H    -2.012000000    -1.063000000     6.824000000
H    -2.045000000    -1.707000000     5.454000000
O     2.870000000     1.404000000    -4.559000000
H     3.554000000     1.651000000    -3.936000000
H     2.711000000     0.477000000    -4.384000000
O    -3.580000000     1.855000000     1.899000000
H    -2.869000000     2.491000000     1.817000000
H    -4.308000000     2.246000000     1.416000000
O    -0.700000000    -1.164000000    -4.396000000
H    -0.040000000    -1.462000000    -3.769000000
H    -0.779000000    -0.224000000    -4.232000000
O     0.954000000     3.322000000    -5.093000000
H     0.399000000     2.793000000    -5.667000000
H     1.664000000     2.733000000    -4.839000000
O    -5.701000000     1.214000000    -3.284000000
H    -5.071000000     1.390000000    -2.585000000
H    -5.186000000     1.268000000    -4.089000000
O    -5.399000000    -1.651000000    -0.732000000
H    -4.703000000    -0.998000000    -0.663000000
H    -5.062000000    -2.411000000    -0.258000000
O     0.315000000    -0.099000000     4.639000000
H     0.704000000    -0.655000000     3.965000000
H    -0.629000000    -0.225000000     4.538000000
O     2.324000000    -0.721000000    -1.817000000
H     1.883000000    -0.606000000    -0.975000000
H     2.572000000     0.166000000    -2.080000000
O    -2.270000000     0.084000000     3.821000000
H    -2.550000000    -0.770000000     3.492000000
H    -2.767000000     0.716000000     3.301000000
O    -2.801000000     1.018000000    -3.830000000
H    -3.270000000     1.415000000    -4.564000000
H    -2.534000000     1.760000000    -3.287000000
O     1.532000000     5.097000000     0.177000000
H     1.568000000     5.619000000    -0.624000000
H     2.091000000     4.341000000    -0.004000000
O     1.710000000     6.524000000    -2.201000000
H     2.207000000     5.971000000    -2.803000000
H     1.207000000     7.107000000    -2.770000000
O    -0.873000000     2.467000000     2.769000000
H    -1.178000000     1.576000000     2.939000000
H     0.046000000     2.461000000     3.038000000
O     0.955000000    -7.441000000    -0.382000000
H     1.594000000    -7.506000000     0.328000000
H     0.221000000    -6.960000000    -0.001000000
O    -3.539000000     0.131000000    -0.320000000
H    -3.515000000     0.426000000     0.590000000
H    -2.625000000     0.152000000    -0.602000000
O    -3.501000000    -1.452000000    -4.763000000
H    -2.888000000    -2.169000000    -4.598000000
H    -3.007000000    -0.661000000    -4.550000000
O     3.672000000    -3.671000000     6.323000000
H     2.797000000    -3.303000000     6.199000000
H     4.069000000    -3.642000000     5.452000000
O    -3.838000000    -3.413000000     0.557000000
H    -4.195000000    -3.798000000     1.357000000
H    -3.383000000    -4.136000000     0.125000000
O    -1.781000000     4.415000000    -0.572000000
H    -1.337000000     4.081000000    -1.352000000
H    -1.075000000     4.586000000     0.051000000
O    -1.030000000    -4.588000000    -4.662000000
H    -0.272000000    -4.890000000    -5.162000000
H    -0.655000000    -4.181000000    -3.881000000
O     1.483000000    -3.292000000    -2.899000000
H     1.855000000    -2.455000000    -2.622000000
H     1.336000000    -3.771000000    -2.083000000
O     0.704000000     2.206000000     6.593000000
H     1.509000000     2.722000000     6.639000000
H     0.614000000     1.985000000     5.666000000
O    -0.785000000    -5.807000000     1.288000000
H    -0.440000000    -4.944000000     1.516000000
H    -0.915000000    -6.243000000     2.130000000
O     5.797000000    -4.776000000     4.009000000
H     5.011000000    -4.543000000     3.516000000
H     6.147000000    -3.939000000     4.313000000
O     5.198000000     1.632000000     0.572000000
H     6.048000000     1.903000000     0.224000000
H     5.265000000     0.680000000     0.653000000
O     3.041000000    -0.131000000     5.453000000
H     2.092000000    -0.010000000     5.461000000
H     3.241000000    -0.404000000     4.558000000
O     6.276000000    -2.217000000     4.618000000
H     5.554000000    -1.668000000     4.311000000
H     6.870000000    -1.608000000     5.058000000
O     2.452000000    -1.547000000     7.992000000
H     3.356000000    -1.358000000     8.243000000
H     2.340000000    -1.108000000     7.149000000
