158
-3030.90715
C     0.934000000     0.245000000     1.048000000
H     1.639000000     0.579000000     1.805000000
C     0.296000000     1.145000000     0.189000000
H     0.563000000     2.199000000     0.210000000
C    -0.540000000     0.791000000    -0.817000000
H    -1.121000000     1.531000000    -1.448000000
C    -0.896000000    -0.553000000    -0.905000000
H    -1.544000000    -0.832000000    -1.732000000
C    -0.317000000    -1.475000000     0.019000000
H    -0.510000000    -2.540000000    -0.087000000
C     0.630000000    -1.099000000     0.980000000
C     1.356000000    -2.053000000     1.972000000
O     0.967000000    -3.204000000     2.138000000
O     2.398000000    -1.682000000     2.496000000
O     3.726000000     5.428000000     0.819000000
H     3.170000000     6.112000000     1.192000000
H     3.309000000     4.608000000     1.086000000
O    -3.489000000     2.147000000    -4.929000000
H    -4.118000000     1.662000000    -5.464000000
H    -3.995000000     2.441000000    -4.172000000
O    -4.709000000     3.479000000    -2.728000000
H    -3.929000000     3.879000000    -2.343000000
H    -5.425000000     4.065000000    -2.482000000
O    -1.585000000     6.030000000    -4.606000000
H    -2.069000000     5.806000000    -5.401000000
H    -0.872000000     6.592000000    -4.910000000
O    -6.734000000     2.254000000     1.291000000
H    -6.990000000     3.053000000     1.751000000
H    -5.777000000     2.272000000     1.293000000
O     4.108000000     0.665000000     1.653000000
H     3.524000000    -0.051000000     1.905000000
H     4.374000000     0.453000000     0.758000000
O    -4.081000000    -1.337000000     2.797000000
H    -4.130000000    -1.228000000     1.848000000
H    -3.215000000    -1.714000000     2.951000000
O     0.400000000     3.740000000     3.488000000
H    -0.129000000     3.010000000     3.166000000
H     1.199000000     3.329000000     3.819000000
O    -3.204000000     7.463000000    -2.253000000
H    -3.489000000     6.928000000    -2.994000000
H    -2.395000000     7.048000000    -1.954000000
O    -4.925000000    -1.037000000     0.250000000
H    -4.564000000    -1.751000000    -0.275000000
H    -5.861000000    -1.044000000     0.054000000
O    -1.568000000    -0.849000000    -6.868000000
H    -1.982000000    -0.028000000    -7.132000000
H    -1.554000000    -0.814000000    -5.911000000
O     3.540000000    -3.934000000     1.741000000
H     3.634000000    -2.989000000     1.857000000
H     2.604000000    -4.066000000     1.594000000
O    -2.428000000    -5.607000000     3.364000000
H    -1.946000000    -6.032000000     4.073000000
H    -2.913000000    -6.318000000     2.945000000
O    -2.035000000    -5.648000000    -2.273000000
H    -1.982000000    -6.579000000    -2.056000000
H    -1.244000000    -5.476000000    -2.784000000
O    -0.386000000    -6.164000000     0.344000000
H    -0.121000000    -5.405000000    -0.175000000
H    -0.063000000    -5.977000000     1.225000000
O    -1.441000000     0.342000000    -4.227000000
H    -0.778000000     1.031000000    -4.188000000
H    -2.235000000     0.790000000    -4.520000000
O     6.067000000     1.939000000     2.986000000
H     6.157000000     1.390000000     3.765000000
H     5.190000000     1.745000000     2.656000000
O     1.117000000     3.936000000    -1.523000000
H     1.955000000     4.154000000    -1.932000000
H     0.549000000     3.695000000    -2.255000000
O    -0.557000000     3.518000000    -4.190000000
H    -0.524000000     4.472000000    -4.118000000
H    -1.423000000     3.335000000    -4.554000000
O     4.204000000    -2.940000000     4.958000000
H     3.907000000    -3.830000000     5.148000000
H     3.941000000    -2.788000000     4.051000000
O    -3.935000000     2.461000000     2.314000000
H    -3.807000000     2.235000000     1.393000000
H    -4.315000000     3.339000000     2.295000000
O     1.497000000    -2.465000000     5.562000000
H     0.684000000    -2.962000000     5.649000000
H     1.631000000    -2.389000000     4.617000000
O    -1.170000000     1.810000000     2.608000000
H    -1.118000000     1.386000000     1.751000000
H    -2.105000000     1.969000000     2.740000000
O     3.112000000     2.458000000    -5.674000000
H     3.131000000     2.203000000    -4.751000000
H     4.033000000     2.485000000    -5.933000000
O     2.563000000    -3.427000000    -3.313000000
H     2.039000000    -3.956000000    -3.914000000
H     2.249000000    -2.532000000    -3.444000000
O     5.583000000    -5.821000000     1.618000000
H     6.153000000    -5.497000000     0.920000000
H     4.866000000    -5.188000000     1.656000000
O    -6.956000000     1.305000000    -2.402000000
H    -7.814000000     1.451000000    -2.802000000
H    -6.397000000     1.984000000    -2.781000000
O    -3.438000000    -3.309000000    -0.416000000
H    -3.192000000    -3.554000000     0.476000000
H    -3.148000000    -4.045000000    -0.954000000
O     2.752000000     0.006000000     5.642000000
H     2.414000000    -0.886000000     5.724000000
H     2.015000000     0.511000000     5.297000000
O     2.444000000     1.059000000    -3.072000000
H     3.279000000     1.514000000    -2.966000000
H     1.899000000     1.390000000    -2.359000000
O    -0.142000000     6.769000000    -1.721000000
H     0.311000000     6.040000000    -1.297000000
H    -0.113000000     7.476000000    -1.077000000
O     0.541000000     0.590000000     4.347000000
H    -0.088000000    -0.036000000     4.707000000
H     0.108000000     0.946000000     3.571000000
O     1.084000000    -1.086000000    -3.848000000
H     0.218000000    -0.679000000    -3.835000000
H     1.669000000    -0.417000000    -3.492000000
O     2.936000000     3.200000000     1.858000000
H     3.528000000     2.560000000     1.461000000
H     3.174000000     3.204000000     2.785000000
O    -0.304000000     4.892000000     1.008000000
H    -0.060000000     4.633000000     1.896000000
H     0.164000000     4.278000000     0.442000000
O     3.490000000     2.984000000     4.546000000
H     3.423000000     2.207000000     5.101000000
H     3.862000000     3.655000000     5.119000000
O    -1.945000000    -3.037000000     3.226000000
H    -2.175000000    -3.964000000     3.159000000
H    -1.194000000    -2.934000000     2.643000000
O    -1.209000000    -1.438000000     5.483000000
H    -1.039000000    -2.027000000     6.218000000
H    -1.506000000    -2.014000000     4.778000000
O     0.935000000    -4.100000000    -1.125000000
H     1.548000000    -3.822000000    -1.806000000
H     0.522000000    -3.288000000    -0.830000000
O    -2.208000000    -7.915000000    -0.176000000
H    -3.023000000    -7.789000000     0.309000000
H    -1.722000000    -7.101000000    -0.042000000
O    -3.104000000     4.544000000    -0.483000000
H    -2.533000000     4.196000000     0.202000000
H    -3.283000000     5.444000000    -0.211000000
O    -3.941000000     1.613000000    -0.259000000
H    -3.892000000     2.030000000    -1.120000000
H    -4.416000000     0.797000000    -0.415000000
O    -6.190000000    -0.889000000    -3.827000000
H    -5.276000000    -0.957000000    -3.551000000
H    -6.521000000    -0.116000000    -3.371000000
O    -4.025000000    -4.164000000    -3.048000000
H    -4.689000000    -4.523000000    -2.459000000
H    -3.195000000    -4.489000000    -2.699000000
O     3.847000000    -5.444000000    -1.279000000
H     4.471000000    -4.910000000    -1.770000000
H     3.534000000    -4.866000000    -0.583000000
O    -3.655000000    -1.079000000    -3.200000000
H    -3.562000000    -2.029000000    -3.134000000
H    -2.768000000    -0.762000000    -3.368000000
O     0.545000000    -5.754000000     2.854000000
H     0.647000000    -4.829000000     2.631000000
H     0.792000000    -5.806000000     3.778000000
O     5.565000000    -0.242000000     4.837000000
H     4.721000000     0.081000000     5.155000000
H     5.367000000    -1.098000000     4.459000000
