158
-3064.41556
C     0.661000000     0.810000000     1.096000000
H     1.367000000     1.365000000     1.708000000
C     0.265000000     1.262000000    -0.180000000
H     0.429000000     2.305000000    -0.439000000
C    -0.405000000     0.470000000    -1.093000000
H    -0.651000000     0.736000000    -2.096000000
C    -0.690000000    -0.860000000    -0.719000000
H    -1.253000000    -1.501000000    -1.392000000
C    -0.294000000    -1.387000000     0.559000000
H    -0.436000000    -2.438000000     0.800000000
C     0.482000000    -0.584000000     1.400000000
C     1.057000000    -1.111000000     2.727000000
O     0.566000000    -2.070000000     3.207000000
O     2.039000000    -0.627000000     3.184000000
O     4.321000000     1.793000000     0.084000000
H     4.147000000     0.951000000     0.504000000
H     5.274000000     1.825000000    -0.003000000
O    -0.530000000     3.793000000    -4.944000000
H     0.057000000     3.985000000    -4.213000000
H    -0.391000000     2.864000000    -5.126000000
O    -3.451000000     3.337000000    -6.512000000
H    -2.697000000     3.758000000    -6.096000000
H    -3.991000000     4.065000000    -6.819000000
O     1.782000000    -4.726000000     3.290000000
H     1.502000000    -3.890000000     3.663000000
H     2.045000000    -4.513000000     2.395000000
O     0.480000000    -1.637000000    -3.723000000
H     0.374000000    -2.572000000    -3.550000000
H    -0.370000000    -1.359000000    -4.065000000
O    -2.087000000    -1.657000000     3.148000000
H    -2.297000000    -0.924000000     3.727000000
H    -1.131000000    -1.703000000     3.158000000
O    -1.589000000     4.703000000     2.208000000
H    -2.306000000     4.197000000     1.824000000
H    -0.935000000     4.758000000     1.511000000
O     2.253000000     4.654000000     2.774000000
H     2.522000000     4.915000000     1.894000000
H     2.396000000     3.708000000     2.798000000
O     4.043000000    -0.745000000     1.120000000
H     3.355000000    -0.607000000     1.771000000
H     3.583000000    -1.095000000     0.357000000
O    -3.493000000    -3.033000000     1.170000000
H    -3.074000000    -2.852000000     2.012000000
H    -3.635000000    -3.980000000     1.172000000
O    -1.987000000    -0.701000000    -4.433000000
H    -2.387000000    -0.327000000    -3.648000000
H    -1.835000000     0.051000000    -5.005000000
O    -1.920000000     4.033000000    -1.286000000
H    -1.034000000     4.170000000    -1.620000000
H    -2.325000000     4.900000000    -1.322000000
O    -2.819000000     2.317000000    -3.641000000
H    -2.360000000     2.923000000    -4.223000000
H    -2.460000000     2.501000000    -2.773000000
O     3.011000000    -0.299000000     7.837000000
H     2.665000000     0.554000000     8.099000000
H     2.300000000    -0.703000000     7.339000000
O     5.950000000    -2.863000000     1.765000000
H     6.346000000    -2.267000000     2.400000000
H     5.298000000    -2.329000000     1.310000000
O    -5.643000000     3.197000000    -2.333000000
H    -4.965000000     2.625000000    -2.692000000
H    -5.814000000     2.846000000    -1.459000000
O     2.624000000    -2.276000000    -5.443000000
H     2.012000000    -2.398000000    -4.718000000
H     2.118000000    -2.502000000    -6.224000000
O     2.647000000     2.694000000    -2.158000000
H     2.750000000     1.806000000    -2.501000000
H     3.240000000     2.731000000    -1.408000000
O    -1.394000000    -3.212000000     7.158000000
H    -1.288000000    -3.233000000     6.207000000
H    -1.430000000    -4.133000000     7.416000000
O     6.361000000    -0.557000000     3.674000000
H     5.916000000     0.146000000     4.148000000
H     6.921000000    -0.104000000     3.044000000
O     0.852000000     4.566000000    -2.405000000
H     1.566000000     5.198000000    -2.326000000
H     1.282000000     3.712000000    -2.355000000
O     1.159000000    -4.260000000    -3.408000000
H     0.639000000    -4.297000000    -2.605000000
H     1.456000000    -5.160000000    -3.543000000
O    -0.299000000     6.875000000    -0.131000000
H    -0.169000000     7.587000000     0.496000000
H     0.469000000     6.314000000    -0.018000000
O    -3.038000000     0.272000000     0.873000000
H    -3.303000000    -0.457000000     1.434000000
H    -2.165000000     0.032000000     0.564000000
O    -3.352000000     3.035000000     0.923000000
H    -3.189000000     3.279000000     0.012000000
H    -3.134000000     2.103000000     0.964000000
O     2.869000000     5.809000000     0.346000000
H     3.483000000     5.466000000    -0.303000000
H     2.939000000     6.760000000     0.263000000
O    -5.860000000     0.899000000    -0.335000000
H    -4.989000000     1.115000000    -0.003000000
H    -5.932000000    -0.049000000    -0.217000000
O    -0.257000000     2.310000000     5.202000000
H    -0.421000000     2.543000000     6.116000000
H    -0.476000000     3.101000000     4.710000000
O     0.683000000     1.299000000    -4.911000000
H     1.021000000     1.330000000    -5.806000000
H     0.813000000     0.392000000    -4.637000000
O     2.438000000     3.608000000    -5.351000000
H     3.010000000     2.965000000    -5.769000000
H     2.360000000     3.305000000    -4.446000000
O     2.270000000     1.746000000     4.497000000
H     1.406000000     1.879000000     4.887000000
H     2.197000000     0.913000000     4.031000000
O     2.766000000    -3.600000000     0.522000000
H     2.792000000    -3.019000000    -0.239000000
H     3.217000000    -4.393000000     0.233000000
O    -2.414000000    -3.388000000    -4.380000000
H    -2.194000000    -2.478000000    -4.579000000
H    -2.609000000    -3.388000000    -3.443000000
O     3.812000000    -2.507000000     4.224000000
H     4.641000000    -2.040000000     4.120000000
H     3.156000000    -1.914000000     3.857000000
O     4.558000000     1.914000000     3.367000000
H     3.847000000     1.815000000     4.000000000
H     4.280000000     1.395000000     2.612000000
O    -0.329000000    -5.768000000     0.951000000
H    -0.354000000    -6.569000000     1.475000000
H     0.099000000    -5.126000000     1.517000000
O    -1.128000000    -4.135000000     4.581000000
H    -0.583000000    -4.897000000     4.385000000
H    -0.624000000    -3.390000000     4.253000000
O    -3.212000000    -3.927000000    -1.496000000
H    -4.054000000    -3.889000000    -1.951000000
H    -3.288000000    -3.277000000    -0.798000000
O    -5.525000000    -1.557000000     0.465000000
H    -5.622000000    -1.097000000     1.299000000
H    -4.812000000    -2.178000000     0.615000000
O    -4.643000000    -0.032000000    -5.618000000
H    -4.301000000     0.859000000    -5.695000000
H    -3.926000000    -0.531000000    -5.226000000
O     3.015000000    -1.320000000    -1.159000000
H     3.550000000    -0.845000000    -1.795000000
H     2.175000000    -1.446000000    -1.600000000
O    -3.711000000    -0.575000000    -2.362000000
H    -4.308000000    -1.280000000    -2.610000000
H    -3.636000000    -0.647000000    -1.411000000
O     1.369000000    -2.147000000     5.963000000
H     2.242000000    -2.519000000     6.088000000
H     1.293000000    -2.027000000     5.017000000
O    -1.890000000     0.146000000     5.300000000
H    -1.238000000     0.812000000     5.079000000
H    -1.788000000     0.016000000     6.242000000
O    -0.561000000    -4.810000000    -1.534000000
H    -1.481000000    -4.551000000    -1.485000000
H    -0.304000000    -4.951000000    -0.623000000
O     3.828000000    -3.680000000     6.787000000
H     4.086000000    -3.190000000     6.006000000
H     3.873000000    -4.598000000     6.519000000
O     3.691000000    -0.160000000    -3.562000000
H     3.426000000    -0.740000000    -4.276000000
H     4.647000000    -0.194000000    -3.569000000
O     1.322000000    -4.722000000     7.631000000
H     2.188000000    -4.383000000     7.857000000
H     0.908000000    -4.013000000     7.139000000
