158
-3048.32750
C     0.663000000     0.705000000     1.092000000
H     1.343000000     1.241000000     1.749000000
C     0.814000000     0.965000000    -0.248000000
H     1.561000000     1.655000000    -0.632000000
C     0.152000000     0.250000000    -1.163000000
H     0.315000000     0.444000000    -2.245000000
C    -0.752000000    -0.704000000    -0.823000000
H    -1.277000000    -1.190000000    -1.641000000
C    -0.966000000    -1.025000000     0.539000000
H    -1.607000000    -1.837000000     0.873000000
C    -0.258000000    -0.263000000     1.536000000
C    -0.439000000    -0.520000000     3.018000000
O    -1.312000000    -1.057000000     3.570000000
O     0.345000000     0.081000000     3.762000000
O     3.179000000    -4.111000000     4.011000000
H     2.979000000    -3.185000000     3.876000000
H     3.806000000    -4.118000000     4.734000000
O     5.299000000     1.340000000    -4.729000000
H     5.733000000     0.842000000    -5.423000000
H     4.444000000     0.921000000    -4.633000000
O    -0.292000000     2.464000000    -7.323000000
H    -0.093000000     1.632000000    -7.752000000
H    -0.407000000     3.083000000    -8.045000000
O    -0.934000000    -0.552000000     8.125000000
H    -1.166000000     0.292000000     8.512000000
H    -0.258000000    -0.342000000     7.480000000
O    -3.609000000     1.933000000     1.813000000
H    -3.168000000     2.229000000     2.609000000
H    -3.233000000     2.471000000     1.116000000
O     0.544000000    -2.361000000     5.467000000
H    -0.190000000    -1.940000000     5.019000000
H     1.321000000    -2.037000000     5.010000000
O    -3.512000000    -0.776000000    -5.571000000
H    -3.350000000    -0.825000000    -6.514000000
H    -4.408000000    -1.095000000    -5.465000000
O    -4.124000000    -1.182000000     3.078000000
H    -4.620000000    -0.428000000     2.758000000
H    -3.240000000    -0.843000000     3.220000000
O     1.505000000     4.968000000     5.152000000
H     1.383000000     4.284000000     4.495000000
H     1.117000000     4.608000000     5.949000000
O    -2.908000000    -4.731000000    -2.683000000
H    -3.306000000    -5.554000000    -2.968000000
H    -2.518000000    -4.937000000    -1.833000000
O     4.110000000     1.444000000    -2.436000000
H     5.002000000     1.384000000    -2.777000000
H     4.125000000     2.208000000    -1.860000000
O    -6.340000000    -2.401000000     4.770000000
H    -5.446000000    -2.513000000     4.447000000
H    -6.359000000    -1.510000000     5.119000000
O    -0.757000000    -1.411000000    -4.714000000
H    -1.080000000    -2.310000000    -4.777000000
H    -1.544000000    -0.869000000    -4.763000000
O    -1.830000000     2.728000000    -1.948000000
H    -1.719000000     2.455000000    -2.859000000
H    -2.523000000     2.160000000    -1.611000000
O     5.257000000     3.924000000     1.388000000
H     4.725000000     4.138000000     0.622000000
H     5.948000000     3.354000000     1.049000000
O    -1.948000000     2.201000000    -5.042000000
H    -1.165000000     2.119000000    -5.586000000
H    -2.257000000     3.093000000    -5.199000000
O    -2.116000000    -4.324000000    -0.006000000
H    -2.875000000    -4.092000000     0.529000000
H    -1.708000000    -3.485000000    -0.220000000
O     4.382000000    -3.597000000    -3.261000000
H     3.941000000    -4.441000000    -3.163000000
H     3.804000000    -2.972000000    -2.823000000
O     3.368000000     3.517000000    -0.850000000
H     3.410000000     4.193000000    -1.525000000
H     2.434000000     3.326000000    -0.760000000
O    -2.013000000    -3.738000000     3.819000000
H    -2.302000000    -2.826000000     3.787000000
H    -1.119000000    -3.719000000     3.477000000
O    -0.638000000    -6.617000000    -0.956000000
H    -1.151000000    -7.284000000    -0.501000000
H    -0.804000000    -5.811000000    -0.467000000
O     4.401000000     1.464000000     5.212000000
H     4.705000000     2.268000000     5.633000000
H     3.783000000     1.762000000     4.545000000
O    -0.845000000    -4.228000000    -4.309000000
H    -1.279000000    -4.943000000    -4.775000000
H    -0.975000000    -4.434000000    -3.383000000
O    -4.896000000    -2.829000000    -3.384000000
H    -4.269000000    -3.513000000    -3.146000000
H    -4.357000000    -2.051000000    -3.529000000
O     0.756000000     4.317000000    -4.819000000
H     0.986000000     3.767000000    -4.070000000
H     0.689000000     3.706000000    -5.553000000
O    -4.817000000     2.115000000    -4.011000000
H    -4.014000000     1.806000000    -4.431000000
H    -4.541000000     2.874000000    -3.496000000
O     1.177000000     4.493000000     1.483000000
H     0.472000000     4.404000000     2.125000000
H     0.783000000     4.218000000     0.655000000
O     0.026000000    -2.727000000    -7.138000000
H    -0.175000000    -2.561000000    -6.218000000
H     0.230000000    -3.662000000    -7.174000000
O     1.992000000    -0.738000000    -4.701000000
H     1.081000000    -1.031000000    -4.700000000
H     2.430000000    -1.321000000    -5.322000000
O     0.353000000     2.836000000     3.659000000
H    -0.580000000     3.053000000     3.655000000
H     0.380000000     1.898000000     3.849000000
O     1.749000000    -3.450000000     0.328000000
H     1.681000000    -2.807000000    -0.377000000
H     2.611000000    -3.848000000     0.208000000
O    -4.150000000    -3.083000000     1.191000000
H    -3.924000000    -2.611000000     1.992000000
H    -4.858000000    -2.569000000     0.802000000
O     2.863000000    -1.246000000     4.085000000
H     3.550000000    -0.580000000     4.115000000
H     2.080000000    -0.770000000     3.808000000
O     3.219000000     2.534000000     2.936000000
H     2.387000000     3.005000000     2.877000000
H     3.741000000     2.879000000     2.212000000
O    -2.311000000     2.175000000     4.350000000
H    -2.776000000     1.405000000     4.678000000
H    -1.909000000     2.561000000     5.129000000
O    -2.919000000    -5.821000000     2.302000000
H    -2.643000000    -5.665000000     1.398000000
H    -2.622000000    -5.046000000     2.780000000
O     0.540000000     4.058000000    -1.283000000
H     0.410000000     4.987000000    -1.477000000
H    -0.278000000     3.641000000    -1.554000000
O     3.235000000    -1.418000000    -2.264000000
H     3.630000000    -0.752000000    -1.703000000
H     2.697000000    -0.923000000    -2.882000000
O    -3.701000000     0.909000000    -0.940000000
H    -3.870000000     0.219000000    -0.299000000
H    -3.976000000     0.531000000    -1.776000000
O     0.858000000     0.917000000     6.351000000
H     0.772000000     0.721000000     5.418000000
H     0.541000000     1.816000000     6.436000000
O     0.619000000    -3.762000000     2.964000000
H     0.835000000    -3.648000000     2.039000000
H     1.432000000    -4.073000000     3.363000000
O    -1.466000000    -5.788000000     5.678000000
H    -1.947000000    -5.135000000     5.170000000
H    -1.380000000    -6.536000000     5.086000000
O    -0.109000000    -3.715000000     7.712000000
H     0.067000000    -3.493000000     6.798000000
H    -0.832000000    -3.140000000     7.964000000
O     2.042000000     1.999000000    -4.362000000
H     2.854000000     1.917000000    -3.861000000
H     1.655000000     1.124000000    -4.334000000
O     5.445000000     0.730000000     2.180000000
H     6.246000000     1.006000000     2.626000000
H     4.739000000     0.989000000     2.772000000
O     5.128000000    -2.415000000     1.259000000
H     4.429000000    -1.783000000     1.090000000
H     5.836000000    -1.893000000     1.636000000
O     4.048000000    -0.215000000     0.206000000
H     3.434000000     0.386000000    -0.214000000
H     4.620000000     0.352000000     0.724000000
O    -2.673000000    -0.157000000     5.953000000
H    -2.249000000    -0.325000000     6.794000000
H    -2.047000000    -0.472000000     5.302000000
