158
-3035.98311
C     1.198000000    -0.698000000     0.356000000
H     2.130000000    -1.209000000     0.584000000
C     1.029000000     0.187000000    -0.678000000
H     1.859000000     0.371000000    -1.356000000
C    -0.176000000     0.750000000    -1.012000000
H    -0.235000000     1.346000000    -1.979000000
C    -1.212000000     0.536000000    -0.114000000
H    -2.165000000     0.974000000    -0.398000000
C    -0.991000000    -0.218000000     1.056000000
H    -1.863000000    -0.440000000     1.666000000
C     0.222000000    -0.857000000     1.320000000
C     0.384000000    -1.839000000     2.466000000
O    -0.419000000    -1.771000000     3.370000000
O     1.301000000    -2.655000000     2.513000000
O     2.264000000     2.914000000    -4.557000000
H     2.978000000     3.042000000    -3.932000000
H     1.469000000     3.068000000    -4.046000000
O    -4.952000000    -0.439000000     2.621000000
H    -4.969000000    -0.279000000     1.678000000
H    -5.655000000    -1.071000000     2.769000000
O    -0.299000000    -4.236000000     4.546000000
H     0.029000000    -3.580000000     3.930000000
H    -0.794000000    -4.848000000     4.002000000
O    -2.856000000    -2.526000000     2.755000000
H    -3.491000000    -1.825000000     2.898000000
H    -2.131000000    -2.316000000     3.345000000
O     5.311000000    -3.004000000     5.016000000
H     4.724000000    -2.703000000     4.323000000
H     5.731000000    -2.206000000     5.338000000
O    -5.352000000    -1.619000000    -1.520000000
H    -5.708000000    -1.751000000    -2.399000000
H    -4.923000000    -0.765000000    -1.561000000
O     0.660000000    -1.386000000    -3.729000000
H     0.655000000    -2.022000000    -4.445000000
H     0.456000000    -1.902000000    -2.949000000
O    -2.901000000     1.807000000    -4.252000000
H    -3.086000000     2.307000000    -5.047000000
H    -2.011000000     1.478000000    -4.379000000
O    -0.406000000    -2.822000000    -1.600000000
H    -1.200000000    -2.384000000    -1.293000000
H     0.070000000    -3.042000000    -0.799000000
O     2.632000000    -4.461000000     4.414000000
H     2.204000000    -3.814000000     3.853000000
H     2.049000000    -5.220000000     4.390000000
O    -2.473000000    -0.469000000     6.260000000
H    -2.086000000    -0.046000000     5.494000000
H    -2.257000000     0.112000000     6.989000000
O     4.579000000     2.877000000    -3.398000000
H     5.215000000     2.192000000    -3.601000000
H     4.946000000     3.328000000    -2.637000000
O     1.859000000    -3.690000000    -0.008000000
H     1.778000000    -3.176000000     0.795000000
H     2.637000000    -4.230000000     0.132000000
O     0.822000000    -5.819000000    -1.356000000
H     1.259000000    -5.039000000    -1.013000000
H     1.012000000    -6.502000000    -0.713000000
O    -5.260000000     0.863000000     0.224000000
H    -5.302000000     1.120000000    -0.697000000
H    -5.158000000     1.688000000     0.699000000
O     3.037000000     0.576000000     4.757000000
H     3.653000000     0.268000000     4.093000000
H     2.919000000     1.506000000     4.562000000
O    -1.260000000     6.456000000     0.126000000
H    -1.746000000     6.680000000    -0.668000000
H    -0.555000000     7.102000000     0.165000000
O     0.864000000    -6.196000000     2.541000000
H     0.220000000    -5.542000000     2.269000000
H     1.051000000    -6.693000000     1.745000000
O    -0.555000000     0.807000000    -4.814000000
H    -0.011000000     0.139000000    -4.398000000
H    -0.367000000     0.721000000    -5.749000000
O    -0.241000000     3.389000000     2.900000000
H    -0.876000000     3.185000000     2.213000000
H    -0.773000000     3.706000000     3.630000000
O    -5.856000000     3.427000000    -0.250000000
H    -5.166000000     3.441000000    -0.914000000
H    -6.574000000     3.925000000    -0.641000000
O    -1.572000000     4.957000000    -3.048000000
H    -1.387000000     5.892000000    -2.960000000
H    -0.756000000     4.526000000    -2.796000000
O     3.276000000    -1.163000000    -5.080000000
H     2.660000000    -0.874000000    -4.407000000
H     2.956000000    -0.759000000    -5.887000000
O     3.162000000    -3.393000000    -2.678000000
H     3.497000000    -2.950000000    -1.898000000
H     2.287000000    -3.024000000    -2.805000000
O    -3.401000000    -3.042000000    -0.089000000
H    -3.168000000    -2.473000000     0.644000000
H    -4.046000000    -2.539000000    -0.587000000
O     3.827000000    -1.886000000     3.178000000
H     4.154000000    -1.292000000     2.503000000
H     3.177000000    -2.425000000     2.729000000
O     3.476000000     4.821000000     0.381000000
H     3.140000000     5.546000000    -0.147000000
H     2.804000000     4.143000000     0.312000000
O     1.792000000     2.729000000     0.789000000
H     1.147000000     2.988000000     1.447000000
H     1.416000000     1.950000000     0.379000000
O    -2.147000000     5.115000000    -5.871000000
H    -2.285000000     5.076000000    -4.925000000
H    -1.206000000     5.257000000    -5.971000000
O    -3.852000000     1.893000000     3.864000000
H    -3.001000000     1.628000000     4.213000000
H    -4.147000000     1.138000000     3.355000000
O     5.244000000     0.752000000     2.974000000
H     5.845000000     0.175000000     3.445000000
H     5.705000000     1.589000000     2.924000000
O     1.059000000     4.063000000    -2.371000000
H     1.438000000     4.862000000    -2.004000000
H     1.306000000     3.376000000    -1.752000000
O     1.577000000     6.223000000    -0.919000000
H     0.969000000     6.843000000    -0.516000000
H     1.947000000     6.699000000    -1.662000000
O    -3.512000000     4.172000000     2.687000000
H    -3.676000000     3.339000000     3.130000000
H    -3.084000000     3.926000000     1.867000000
O     5.487000000    -1.713000000    -3.908000000
H     5.176000000    -1.512000000    -3.025000000
H     4.734000000    -1.537000000    -4.473000000
O    -4.913000000     0.992000000    -2.625000000
H    -4.080000000     1.117000000    -3.079000000
H    -5.577000000     1.221000000    -3.276000000
O     1.110000000    -1.331000000     5.554000000
H     0.757000000    -1.484000000     4.677000000
H     1.872000000    -0.770000000     5.410000000
O    -1.896000000     3.983000000     0.663000000
H    -2.346000000     3.842000000    -0.170000000
H    -1.450000000     4.823000000     0.555000000
O     3.626000000    -5.806000000     0.794000000
H     3.683000000    -6.390000000     1.550000000
H     4.524000000    -5.506000000     0.654000000
O    -3.507000000     3.399000000    -1.725000000
H    -3.536000000     2.525000000    -2.115000000
H    -2.916000000     3.895000000    -2.291000000
O     3.276000000     0.971000000    -6.842000000
H     2.962000000     1.754000000    -6.391000000
H     2.679000000     0.866000000    -7.583000000
O    -1.346000000    -4.762000000     1.786000000
H    -1.689000000    -3.878000000     1.917000000
H    -2.124000000    -5.320000000     1.768000000
O     0.822000000    -2.792000000     7.777000000
H     0.999000000    -2.387000000     6.928000000
H    -0.118000000    -2.973000000     7.765000000
O     5.080000000    -5.528000000     4.419000000
H     4.147000000    -5.328000000     4.343000000
H     5.489000000    -4.687000000     4.622000000
O     4.085000000     1.078000000     0.548000000
H     4.207000000     1.102000000     1.497000000
H     3.441000000     1.764000000     0.372000000
O    -1.498000000    -4.099000000     7.099000000
H    -2.390000000    -3.770000000     6.985000000
H    -1.135000000    -4.115000000     6.213000000
O     4.324000000    -1.146000000    -1.474000000
H     5.222000000    -0.936000000    -1.219000000
H     3.791000000    -0.475000000    -1.047000000
O    -1.248000000     0.823000000     4.005000000
H    -0.521000000     1.435000000     3.883000000
H    -0.864000000    -0.039000000     3.843000000
