158
-3007.40911
C     0.585000000    -1.366000000    -0.150000000
H     1.184000000    -2.272000000    -0.168000000
C     0.809000000    -0.306000000    -0.975000000
H     1.478000000    -0.367000000    -1.830000000
C     0.241000000     0.886000000    -0.713000000
H     0.424000000     1.767000000    -1.374000000
C    -0.725000000     1.093000000     0.255000000
H    -1.136000000     2.093000000     0.365000000
C    -1.105000000    -0.031000000     1.042000000
H    -1.933000000    -0.006000000     1.745000000
C    -0.339000000    -1.210000000     0.881000000
C    -0.468000000    -2.282000000     1.897000000
O    -1.153000000    -2.118000000     2.842000000
O     0.123000000    -3.325000000     1.802000000
O     0.959000000    -7.089000000     4.108000000
H     1.473000000    -7.878000000     3.935000000
H     0.995000000    -6.983000000     5.059000000
O     5.854000000     1.822000000     0.609000000
H     6.050000000     1.642000000     1.528000000
H     5.316000000     2.614000000     0.630000000
O    -0.612000000    -0.323000000     6.925000000
H    -1.076000000    -0.631000000     7.704000000
H     0.208000000     0.038000000     7.263000000
O    -4.952000000    -1.431000000     2.155000000
H    -5.389000000    -0.902000000     1.488000000
H    -4.436000000    -0.803000000     2.659000000
O    -1.973000000    -5.074000000     2.351000000
H    -1.108000000    -4.686000000     2.220000000
H    -2.577000000    -4.333000000     2.304000000
O    -4.913000000    -4.051000000     2.129000000
H    -4.806000000    -3.100000000     2.131000000
H    -5.004000000    -4.284000000     3.053000000
O     3.829000000    -5.746000000    -2.335000000
H     3.404000000    -5.107000000    -2.906000000
H     4.030000000    -5.258000000    -1.537000000
O     3.365000000    -3.700000000    -4.308000000
H     3.242000000    -4.308000000    -5.037000000
H     2.793000000    -2.961000000    -4.514000000
O     5.352000000     5.291000000    -1.327000000
H     4.973000000     4.571000000    -0.823000000
H     4.598000000     5.803000000    -1.619000000
O     2.342000000    -1.135000000    -4.342000000
H     1.607000000    -0.544000000    -4.182000000
H     2.932000000    -0.636000000    -4.907000000
O    -0.211000000     0.523000000    -4.054000000
H    -0.294000000     1.458000000    -4.240000000
H    -0.907000000     0.342000000    -3.422000000
O     4.145000000    -1.356000000     1.655000000
H     4.844000000    -0.733000000     1.853000000
H     3.364000000    -0.975000000     2.058000000
O     0.525000000     3.234000000    -6.397000000
H     1.230000000     3.565000000    -6.953000000
H     0.614000000     2.282000000    -6.439000000
O    -3.225000000    -0.556000000    -1.334000000
H    -3.279000000     0.244000000    -1.858000000
H    -2.337000000    -0.550000000    -0.979000000
O     4.499000000     0.766000000    -1.716000000
H     4.492000000    -0.181000000    -1.857000000
H     4.925000000     0.878000000    -0.866000000
O     1.382000000    -5.626000000     1.834000000
H     1.054000000    -4.732000000     1.936000000
H     1.072000000    -6.085000000     2.615000000
O    -1.590000000    -5.752000000    -0.762000000
H    -2.128000000    -4.965000000    -0.843000000
H    -0.693000000    -5.424000000    -0.698000000
O    -2.398000000    -2.890000000     5.012000000
H    -1.917000000    -2.620000000     4.230000000
H    -3.307000000    -2.964000000     4.720000000
O    -5.323000000     3.283000000     0.783000000
H    -4.985000000     2.702000000     0.100000000
H    -6.274000000     3.255000000     0.671000000
O     2.489000000    -0.390000000     3.578000000
H     1.986000000     0.363000000     3.266000000
H     2.809000000    -0.123000000     4.440000000
O     0.595000000    -3.406000000    -2.906000000
H     0.108000000    -2.741000000    -2.420000000
H     0.958000000    -3.979000000    -2.231000000
O     3.574000000     3.042000000    -2.503000000
H     2.733000000     3.324000000    -2.145000000
H     3.626000000     2.111000000    -2.288000000
O    -1.434000000     5.423000000     2.460000000
H    -2.287000000     5.504000000     2.034000000
H    -0.868000000     5.037000000     1.791000000
O     3.824000000     4.960000000    -4.384000000
H     4.174000000     4.341000000    -3.743000000
H     2.874000000     4.909000000    -4.273000000
O    -2.286000000    -6.769000000     4.657000000
H    -2.776000000    -6.086000000     4.199000000
H    -1.624000000    -7.054000000     4.027000000
O     1.074000000     0.438000000    -6.553000000
H     1.221000000    -0.177000000    -5.833000000
H     1.491000000     0.025000000    -7.309000000
O     0.421000000     3.045000000     3.543000000
H    -0.323000000     2.458000000     3.674000000
H     0.847000000     2.719000000     2.750000000
O    -1.964000000     4.027000000    -6.104000000
H    -1.113000000     3.593000000    -6.156000000
H    -2.592000000     3.311000000    -6.004000000
O     0.822000000     4.398000000    -2.275000000
H     0.756000000     5.345000000    -2.404000000
H     0.055000000     4.042000000    -2.722000000
O     1.537000000    -4.791000000    -0.726000000
H     2.421000000    -4.464000000    -0.559000000
H     1.310000000    -5.282000000     0.064000000
O    -2.934000000    -7.355000000     1.160000000
H    -2.619000000    -6.510000000     1.479000000
H    -2.739000000    -7.345000000     0.223000000
O     0.947000000    -3.151000000     4.285000000
H     0.669000000    -2.304000000     4.633000000
H     0.439000000    -3.259000000     3.481000000
O     2.387000000     1.584000000     1.617000000
H     3.326000000     1.408000000     1.559000000
H     1.974000000     0.803000000     1.249000000
O    -3.861000000     0.359000000     4.355000000
H    -2.952000000     0.651000000     4.419000000
H    -3.895000000    -0.438000000     4.885000000
O     0.229000000     4.461000000     0.487000000
H     0.342000000     4.240000000    -0.438000000
H     0.789000000     5.225000000     0.621000000
O    -1.766000000     4.685000000    -3.218000000
H    -2.360000000     5.340000000    -2.852000000
H    -1.908000000     4.733000000    -4.163000000
O     0.553000000     7.028000000    -2.161000000
H     0.474000000     7.381000000    -1.275000000
H    -0.215000000     7.365000000    -2.623000000
O    -5.746000000    -0.150000000    -0.344000000
H    -4.832000000    -0.358000000    -0.539000000
H    -6.123000000     0.087000000    -1.191000000
O    -1.743000000    -3.287000000     7.764000000
H    -2.372000000    -2.845000000     8.333000000
H    -1.928000000    -2.945000000     6.889000000
O    -4.398000000     3.033000000     3.405000000
H    -4.618000000     3.312000000     2.516000000
H    -4.404000000     2.077000000     3.364000000
O    -2.484000000     1.795000000    -2.808000000
H    -1.965000000     2.539000000    -2.502000000
H    -3.385000000     2.021000000    -2.578000000
O     4.790000000    -1.707000000    -2.773000000
H     4.008000000    -1.534000000    -3.297000000
H     4.682000000    -2.609000000    -2.472000000
O     0.814000000    -4.171000000     6.930000000
H     0.080000000    -3.683000000     7.304000000
H     0.753000000    -4.009000000     5.988000000
O     4.092000000     3.741000000     0.964000000
H     3.338000000     3.185000000     1.158000000
H     4.234000000     4.241000000     1.768000000
O     3.018000000    -7.678000000     1.009000000
H     3.942000000    -7.477000000     1.158000000
H     2.552000000    -6.896000000     1.303000000
O     3.647000000    -2.755000000     4.417000000
H     3.786000000    -2.143000000     3.694000000
H     2.738000000    -3.039000000     4.319000000
O     4.178000000    -3.484000000    -0.482000000
H     3.931000000    -2.611000000    -0.179000000
H     4.827000000    -3.784000000     0.155000000
O    -1.062000000     0.467000000     4.429000000
H    -0.842000000     0.284000000     5.343000000
H    -1.103000000    -0.395000000     4.015000000
