158
-3022.42884
C     0.180000000     1.353000000    -0.332000000
H     0.582000000     2.325000000    -0.606000000
C     0.978000000     0.372000000    -0.873000000
H     1.723000000     0.475000000    -1.658000000
C     0.691000000    -0.919000000    -0.445000000
H     1.365000000    -1.770000000    -0.693000000
C    -0.390000000    -1.175000000     0.465000000
H    -0.630000000    -2.169000000     0.834000000
C    -1.198000000    -0.082000000     0.943000000
H    -2.122000000    -0.249000000     1.491000000
C    -0.826000000     1.176000000     0.588000000
C    -1.662000000     2.310000000     1.103000000
O    -2.475000000     2.159000000     1.987000000
O    -1.371000000     3.441000000     0.712000000
O     4.256000000     0.304000000    -3.877000000
H     4.361000000    -0.321000000    -3.159000000
H     4.600000000     1.127000000    -3.529000000
O     3.809000000    -4.034000000     3.413000000
H     3.803000000    -4.871000000     2.950000000
H     4.363000000    -3.467000000     2.878000000
O     4.169000000    -4.261000000    -1.075000000
H     3.299000000    -4.651000000    -0.985000000
H     4.703000000    -4.953000000    -1.464000000
O    -6.675000000     4.511000000     3.455000000
H    -5.719000000     4.478000000     3.439000000
H    -6.943000000     4.093000000     2.637000000
O     7.205000000    -1.447000000    -0.334000000
H     7.030000000    -0.814000000     0.362000000
H     8.157000000    -1.440000000    -0.431000000
O    -0.565000000     3.421000000    -5.550000000
H    -0.457000000     2.985000000    -4.704000000
H    -0.984000000     2.764000000    -6.106000000
O    -3.926000000    -4.423000000     3.522000000
H    -4.379000000    -4.515000000     4.360000000
H    -3.004000000    -4.572000000     3.731000000
O    -3.335000000     5.290000000    -3.957000000
H    -4.024000000     4.822000000    -3.486000000
H    -2.519000000     4.931000000    -3.607000000
O     3.114000000     5.200000000     3.290000000
H     2.214000000     4.904000000     3.154000000
H     3.650000000     4.555000000     2.828000000
O    -3.349000000     5.920000000     0.946000000
H    -2.790000000     5.208000000     0.637000000
H    -4.175000000     5.796000000     0.478000000
O     0.051000000    -0.614000000    -4.523000000
H    -0.748000000    -0.747000000    -5.033000000
H    -0.070000000     0.240000000    -4.107000000
O    -4.572000000    -2.339000000     1.981000000
H    -4.189000000    -3.121000000     2.378000000
H    -5.203000000    -2.025000000     2.629000000
O     0.001000000    -6.178000000     2.431000000
H    -0.236000000    -5.735000000     1.617000000
H    -0.270000000    -7.086000000     2.297000000
O    -1.498000000     7.994000000    -0.957000000
H    -2.215000000     7.612000000    -0.451000000
H    -1.871000000     8.787000000    -1.341000000
O    -2.016000000    -3.155000000    -4.026000000
H    -1.175000000    -3.452000000    -3.678000000
H    -2.155000000    -3.691000000    -4.806000000
O     2.086000000    -5.711000000    -0.161000000
H     1.187000000    -5.386000000    -0.222000000
H     2.310000000    -5.620000000     0.765000000
O     6.297000000     1.604000000     1.167000000
H     7.071000000     1.384000000     0.649000000
H     5.606000000     1.041000000     0.816000000
O    -1.028000000     1.275000000     4.380000000
H    -1.355000000     0.618000000     4.996000000
H    -1.565000000     1.156000000     3.597000000
O    -1.564000000     4.124000000    -1.851000000
H    -1.402000000     4.032000000    -0.912000000
H    -0.776000000     4.550000000    -2.189000000
O    -6.671000000    -0.853000000     3.129000000
H    -6.159000000    -0.167000000     2.701000000
H    -7.003000000    -0.441000000     3.927000000
O     0.583000000     5.682000000    -2.867000000
H    -0.109000000     5.869000000    -3.501000000
H     1.375000000     5.588000000    -3.397000000
O     4.664000000    -1.612000000    -1.901000000
H     5.380000000    -1.346000000    -1.324000000
H     4.521000000    -2.535000000    -1.695000000
O    -0.690000000     1.766000000    -3.482000000
H    -0.680000000     2.081000000    -2.579000000
H    -1.616000000     1.618000000    -3.674000000
O     0.446000000    -3.847000000    -2.690000000
H     0.951000000    -3.081000000    -2.961000000
H     0.803000000    -4.567000000    -3.210000000
O     0.584000000    -1.044000000     3.765000000
H     0.745000000    -1.270000000     2.849000000
H     0.152000000    -0.190000000     3.729000000
O     2.758000000     0.472000000    -6.200000000
H     3.429000000     0.264000000    -5.550000000
H     1.984000000     0.695000000    -5.684000000
O     0.449000000     7.124000000     1.669000000
H    -0.310000000     6.886000000     1.138000000
H     1.007000000     7.628000000     1.076000000
O     5.319000000    -3.045000000     1.299000000
H     5.288000000    -3.621000000     0.536000000
H     6.096000000    -2.504000000     1.160000000
O     1.861000000    -8.475000000    -0.933000000
H     2.003000000    -7.589000000    -0.599000000
H     2.486000000    -8.562000000    -1.652000000
O     5.689000000    -2.040000000    -5.203000000
H     6.516000000    -1.559000000    -5.201000000
H     5.028000000    -1.381000000    -4.991000000
O     5.015000000     4.100000000    -0.643000000
H     5.682000000     3.424000000    -0.760000000
H     4.968000000     4.229000000     0.304000000
O     2.106000000    -2.010000000    -3.552000000
H     2.732000000    -1.429000000    -3.120000000
H     1.450000000    -1.421000000    -3.926000000
O     1.974000000     2.003000000     5.256000000
H     1.325000000     1.500000000     5.748000000
H     1.458000000     2.629000000     4.749000000
O    -3.835000000     4.335000000     3.044000000
H    -3.236000000     3.658000000     2.730000000
H    -3.926000000     4.936000000     2.304000000
O    -0.113000000     4.086000000     3.704000000
H    -0.657000000     3.522000000     4.253000000
H    -0.418000000     3.919000000     2.812000000
O    -1.136000000    -4.530000000     4.302000000
H    -0.832000000    -4.915000000     3.479000000
H    -0.408000000    -3.980000000     4.592000000
O     1.470000000    -5.877000000    -4.171000000
H     1.473000000    -5.816000000    -5.126000000
H     1.564000000    -6.813000000    -3.991000000
O    -0.587000000    -5.046000000    -0.475000000
H    -1.452000000    -5.425000000    -0.630000000
H    -0.356000000    -4.631000000    -1.306000000
O     1.388000000    -3.352000000     4.727000000
H     1.046000000    -2.486000000     4.503000000
H     2.109000000    -3.490000000     4.113000000
O    -7.107000000     3.010000000     1.315000000
H    -7.334000000     3.073000000     0.387000000
H    -6.447000000     2.319000000     1.354000000
O     5.091000000     2.885000000    -3.309000000
H     4.315000000     3.113000000    -3.821000000
H     4.902000000     3.211000000    -2.429000000
O     4.323000000    -0.050000000     0.432000000
H     3.979000000    -0.009000000     1.324000000
H     4.021000000    -0.894000000     0.097000000
O    -5.175000000     1.095000000     1.667000000
H    -4.279000000     1.406000000     1.796000000
H    -5.128000000     0.554000000     0.878000000
O     2.506000000    -2.347000000    -6.340000000
H     2.223000000    -1.447000000    -6.502000000
H     2.446000000    -2.450000000    -5.391000000
O    -2.999000000    -0.965000000    -2.449000000
H    -2.385000000    -0.230000000    -2.434000000
H    -2.521000000    -1.668000000    -2.888000000
O    -3.112000000     3.098000000     5.484000000
H    -2.748000000     2.278000000     5.149000000
H    -3.648000000     3.434000000     4.765000000
O     4.247000000    -5.516000000    -4.288000000
H     4.465000000    -4.607000000    -4.495000000
H     3.293000000    -5.554000000    -4.350000000
O    -5.060000000    -1.162000000    -0.301000000
H    -4.439000000    -1.447000000    -0.972000000
H    -4.821000000    -1.667000000     0.476000000
