158
-3053.37292
C     1.123000000    -0.954000000     0.288000000
H     1.969000000    -1.573000000     0.577000000
C     1.310000000     0.372000000    -0.011000000
H     2.273000000     0.860000000    -0.141000000
C     0.221000000     1.155000000    -0.331000000
H     0.294000000     2.179000000    -0.612000000
C    -1.117000000     0.602000000    -0.373000000
H    -1.883000000     1.244000000    -0.802000000
C    -1.378000000    -0.703000000     0.121000000
H    -2.392000000    -1.093000000     0.151000000
C    -0.194000000    -1.469000000     0.443000000
C    -0.365000000    -2.848000000     0.992000000
O    -1.472000000    -3.391000000     1.041000000
O     0.633000000    -3.538000000     1.246000000
O     3.391000000     4.655000000     0.612000000
H     3.576000000     4.418000000    -0.296000000
H     3.253000000     3.818000000     1.055000000
O     2.880000000    -6.030000000     3.588000000
H     3.286000000    -6.556000000     2.899000000
H     1.961000000    -5.967000000     3.330000000
O     0.712000000     4.342000000     2.104000000
H     0.688000000     3.399000000     2.267000000
H     1.465000000     4.652000000     2.606000000
O     1.144000000    -7.852000000    -0.383000000
H     0.301000000    -7.597000000    -0.759000000
H     1.477000000    -8.525000000    -0.977000000
O     0.688000000    -4.584000000     5.477000000
H     0.622000000    -5.464000000     5.106000000
H     0.559000000    -3.999000000     4.730000000
O    -5.757000000    -2.340000000     1.178000000
H    -4.977000000    -1.850000000     1.435000000
H    -5.599000000    -3.228000000     1.497000000
O    -2.549000000    -5.360000000     2.014000000
H    -2.040000000    -4.581000000     1.788000000
H    -2.152000000    -6.062000000     1.499000000
O    -0.854000000     3.763000000    -5.382000000
H    -1.314000000     3.587000000    -4.562000000
H    -1.113000000     4.654000000    -5.617000000
O     5.840000000     1.834000000    -1.929000000
H     6.524000000     2.499000000    -2.003000000
H     6.029000000     1.387000000    -1.104000000
O     5.311000000     0.552000000     1.865000000
H     5.943000000     1.168000000     1.495000000
H     5.850000000    -0.118000000     2.287000000
O     5.450000000    -2.809000000     1.525000000
H     4.667000000    -3.360000000     1.538000000
H     5.961000000    -3.101000000     2.280000000
O     3.715000000     2.827000000     2.501000000
H     4.429000000     3.302000000     2.926000000
H     4.041000000     1.931000000     2.414000000
O     4.119000000    -1.167000000    -0.623000000
H     4.425000000    -2.003000000    -0.271000000
H     4.480000000    -0.510000000    -0.027000000
O    -0.378000000     8.293000000    -0.509000000
H     0.456000000     7.979000000    -0.161000000
H    -0.981000000     7.559000000    -0.385000000
O     0.892000000    -0.437000000    -3.856000000
H     0.612000000    -1.268000000    -3.471000000
H     1.844000000    -0.515000000    -3.927000000
O    -1.734000000     0.187000000    -3.787000000
H    -1.725000000     0.093000000    -4.740000000
H    -0.900000000    -0.186000000    -3.502000000
O     2.171000000     2.582000000    -3.445000000
H     1.700000000     1.790000000    -3.189000000
H     2.339000000     2.470000000    -4.381000000
O    -5.391000000     1.357000000    -1.356000000
H    -6.034000000     1.879000000    -1.836000000
H    -5.661000000     0.450000000    -1.503000000
O     3.097000000    -3.950000000     0.686000000
H     2.188000000    -3.721000000     0.879000000
H     3.126000000    -4.903000000     0.761000000
O     2.220000000     7.337000000     0.775000000
H     2.349000000     6.437000000     0.477000000
H     3.096000000     7.639000000     1.014000000
O     3.796000000    -0.532000000    -3.097000000
H     4.522000000     0.085000000    -3.186000000
H     3.798000000    -0.771000000    -2.170000000
O     0.255000000    -5.597000000     2.888000000
H    -0.107000000    -6.384000000     2.482000000
H     0.205000000    -4.930000000     2.203000000
O    -2.171000000    -7.625000000    -0.134000000
H    -3.050000000    -8.000000000    -0.094000000
H    -2.069000000    -7.350000000    -1.046000000
O     2.998000000    -3.788000000    -3.712000000
H     2.930000000    -3.161000000    -2.992000000
H     3.234000000    -4.614000000    -3.289000000
O     0.590000000     1.481000000     2.778000000
H    -0.327000000     1.505000000     3.049000000
H     0.556000000     1.348000000     1.830000000
O    -3.404000000    -1.393000000    -2.748000000
H    -2.648000000    -0.817000000    -2.628000000
H    -3.177000000    -1.932000000    -3.506000000
O    -3.155000000     2.346000000    -2.990000000
H    -4.016000000     1.927000000    -2.985000000
H    -2.537000000     1.621000000    -3.080000000
O     0.176000000    -3.058000000    -3.116000000
H     0.394000000    -3.519000000    -2.306000000
H    -0.691000000    -3.389000000    -3.353000000
O     4.236000000     6.816000000    -2.554000000
H     4.072000000     5.922000000    -2.255000000
H     5.127000000     6.792000000    -2.903000000
O     4.696000000    -4.912000000    -1.701000000
H     4.378000000    -4.465000000    -0.917000000
H     4.693000000    -5.840000000    -1.466000000
O     4.031000000     3.897000000    -1.819000000
H     3.366000000     3.475000000    -2.363000000
H     4.785000000     3.309000000    -1.862000000
O    -2.426000000    -3.800000000    -1.598000000
H    -2.870000000    -2.974000000    -1.407000000
H    -2.130000000    -4.116000000    -0.744000000
O    -5.026000000    -4.836000000     2.442000000
H    -4.069000000    -4.840000000     2.465000000
H    -5.287000000    -5.241000000     3.269000000
O     0.814000000    -2.351000000     3.773000000
H     1.559000000    -1.772000000     3.614000000
H     0.844000000    -2.983000000     3.054000000
O     4.849000000    -1.683000000     4.759000000
H     3.947000000    -1.484000000     4.509000000
H     4.871000000    -2.637000000     4.835000000
O    -5.339000000     1.904000000     1.399000000
H    -5.459000000     1.406000000     0.590000000
H    -5.590000000     2.798000000     1.169000000
O    -3.482000000    -1.612000000     2.589000000
H    -3.438000000    -2.051000000     3.439000000
H    -2.727000000    -1.948000000     2.106000000
O    -5.780000000    -1.691000000    -1.638000000
H    -4.951000000    -1.558000000    -2.097000000
H    -5.530000000    -2.091000000    -0.804000000
O    -2.149000000     1.233000000     3.324000000
H    -2.290000000     0.705000000     4.110000000
H    -2.765000000     0.878000000     2.683000000
O     0.346000000     5.668000000    -2.664000000
H     1.113000000     5.216000000    -3.014000000
H     0.461000000     5.635000000    -1.715000000
O    -3.005000000     3.906000000    -0.572000000
H    -3.871000000     4.236000000    -0.334000000
H    -3.158000000     2.997000000    -0.831000000
O    -1.065000000     5.464000000     0.288000000
H    -1.540000000     4.738000000    -0.115000000
H    -0.541000000     5.055000000     0.977000000
O    -3.140000000     5.720000000    -2.575000000
H    -2.970000000     5.298000000    -1.733000000
H    -2.277000000     5.802000000    -2.981000000
O    -5.835000000    -5.722000000    -0.239000000
H    -6.612000000    -6.108000000     0.164000000
H    -5.415000000    -5.234000000     0.469000000
O     2.813000000    -0.682000000     2.942000000
H     2.259000000     0.051000000     2.674000000
H     3.636000000    -0.544000000     2.473000000
O     3.518000000    -6.793000000     0.430000000
H     2.720000000    -7.202000000     0.093000000
H     4.145000000    -6.864000000    -0.290000000
O    -2.188000000    -3.766000000    -4.254000000
H    -2.390000000    -4.605000000    -4.667000000
H    -2.609000000    -3.814000000    -3.395000000
O     1.134000000    -4.933000000    -1.224000000
H     1.463000000    -4.445000000    -0.469000000
H     0.556000000    -5.596000000    -0.847000000
