158
-3037.49641
C     0.982000000    -1.115000000    -0.096000000
H     1.739000000    -1.887000000    -0.207000000
C     1.062000000     0.118000000    -0.790000000
H     1.943000000     0.241000000    -1.415000000
C     0.109000000     1.068000000    -0.612000000
H     0.189000000     1.928000000    -1.225000000
C    -0.903000000     0.845000000     0.302000000
H    -1.706000000     1.564000000     0.439000000
C    -1.004000000    -0.368000000     0.997000000
H    -1.798000000    -0.621000000     1.695000000
C     0.008000000    -1.280000000     0.832000000
C    -0.054000000    -2.644000000     1.544000000
O    -0.794000000    -2.879000000     2.477000000
O     0.683000000    -3.588000000     1.219000000
O     3.625000000    -6.085000000     4.691000000
H     2.928000000    -6.196000000     4.045000000
H     4.424000000    -6.004000000     4.170000000
O     2.134000000    -7.264000000    -1.471000000
H     1.523000000    -7.451000000    -0.759000000
H     2.368000000    -8.125000000    -1.818000000
O     0.393000000    -3.918000000     4.736000000
H     1.013000000    -4.288000000     4.107000000
H    -0.002000000    -3.177000000     4.276000000
O    -3.642000000    -3.115000000     2.253000000
H    -3.611000000    -2.542000000     3.019000000
H    -2.751000000    -3.099000000     1.905000000
O     1.426000000    -4.256000000     7.132000000
H     2.316000000    -4.033000000     6.857000000
H     0.891000000    -4.113000000     6.351000000
O    -1.392000000    -5.654000000     2.381000000
H    -0.937000000    -4.817000000     2.462000000
H    -1.704000000    -5.671000000     1.476000000
O    -0.797000000     3.994000000    -5.473000000
H    -1.527000000     3.409000000    -5.269000000
H    -1.163000000     4.625000000    -6.093000000
O     5.437000000    -2.668000000    -1.780000000
H     4.759000000    -3.206000000    -1.370000000
H     5.325000000    -2.816000000    -2.719000000
O     0.266000000    -7.764000000     0.643000000
H    -0.533000000    -7.978000000     1.124000000
H     0.892000000    -8.438000000     0.907000000
O     4.567000000    -0.187000000    -3.008000000
H     5.177000000    -0.553000000    -3.649000000
H     4.595000000    -0.800000000    -2.274000000
O     1.104000000     7.008000000     0.046000000
H     1.322000000     7.924000000    -0.128000000
H     0.481000000     6.775000000    -0.642000000
O     0.204000000    -0.893000000    -3.724000000
H     0.034000000    -0.558000000    -2.843000000
H     0.469000000    -1.802000000    -3.588000000
O    -3.533000000     3.076000000    -5.024000000
H    -3.437000000     2.157000000    -4.774000000
H    -4.367000000     3.112000000    -5.492000000
O    -3.472000000    -0.118000000    -2.111000000
H    -3.333000000     0.102000000    -3.032000000
H    -3.268000000    -1.051000000    -2.053000000
O     0.900000000     3.650000000    -3.307000000
H     0.196000000     3.832000000    -3.930000000
H     1.282000000     2.827000000    -3.611000000
O     2.537000000     0.029000000     2.730000000
H     1.900000000     0.701000000     2.973000000
H     2.030000000    -0.613000000     2.232000000
O     3.086000000     5.325000000     1.009000000
H     2.321000000     5.848000000     0.768000000
H     3.772000000     5.970000000     1.179000000
O     2.485000000     1.361000000    -3.964000000
H     2.065000000     0.669000000    -4.475000000
H     3.232000000     0.931000000    -3.547000000
O     1.561000000    -5.739000000     2.492000000
H     1.015000000    -6.365000000     2.017000000
H     1.475000000    -4.923000000     1.998000000
O    -5.018000000     0.500000000     4.097000000
H    -5.791000000     1.026000000     4.302000000
H    -5.011000000     0.447000000     3.142000000
O    -5.194000000    -3.781000000     4.864000000
H    -4.406000000    -4.251000000     4.592000000
H    -4.900000000    -2.881000000     5.003000000
O     0.866000000     6.426000000    -3.030000000
H     0.723000000     5.487000000    -3.149000000
H     1.800000000     6.503000000    -2.833000000
O     2.500000000    -4.318000000    -2.000000000
H     2.555000000    -4.157000000    -1.058000000
H     2.581000000    -5.268000000    -2.086000000
O    -2.669000000     0.066000000    -5.045000000
H    -1.951000000    -0.465000000    -4.700000000
H    -3.124000000    -0.513000000    -5.656000000
O    -2.281000000     1.432000000     4.415000000
H    -2.674000000     1.361000000     5.284000000
H    -2.905000000     1.955000000     3.912000000
O    -2.117000000    -2.779000000    -1.958000000
H    -1.567000000    -2.963000000    -2.719000000
H    -1.747000000    -3.318000000    -1.258000000
O    -0.376000000    -0.836000000     6.047000000
H    -0.462000000    -0.590000000     5.126000000
H     0.560000000    -0.752000000     6.231000000
O    -4.670000000     2.150000000    -0.926000000
H    -4.232000000     1.478000000    -1.448000000
H    -5.564000000     2.174000000    -1.268000000
O     0.174000000    -3.597000000    -3.423000000
H     0.932000000    -3.940000000    -2.950000000
H    -0.449000000    -4.323000000    -3.436000000
O     3.742000000     6.874000000    -2.641000000
H     3.808000000     6.156000000    -2.012000000
H     3.970000000     7.656000000    -2.137000000
O     4.726000000    -6.409000000    -0.967000000
H     4.498000000    -5.658000000    -0.419000000
H     3.884000000    -6.762000000    -1.253000000
O    -0.941000000    -5.206000000    -0.270000000
H    -0.447000000    -5.990000000    -0.509000000
H    -0.335000000    -4.696000000     0.267000000
O    -4.546000000    -6.149000000     2.931000000
H    -3.763000000    -6.019000000     3.467000000
H    -4.720000000    -5.289000000     2.549000000
O     0.299000000     1.028000000     3.309000000
H     0.168000000     1.280000000     2.395000000
H    -0.510000000     1.289000000     3.748000000
O     4.651000000     3.358000000    -3.505000000
H     4.032000000     2.805000000    -3.982000000
H     4.102000000     3.894000000    -2.933000000
O     4.813000000    -0.515000000     3.777000000
H     4.011000000    -0.315000000     3.295000000
H     5.004000000    -1.427000000     3.557000000
O    -5.241000000     0.799000000     1.288000000
H    -5.073000000     1.315000000     0.500000000
H    -5.724000000     0.034000000     0.975000000
O    -3.189000000    -1.610000000     4.566000000
H    -2.657000000    -1.564000000     5.360000000
H    -3.075000000    -0.754000000     4.152000000
O    -3.526000000     2.875000000     2.592000000
H    -3.967000000     2.283000000     1.984000000
H    -4.210000000     3.140000000     3.207000000
O    -2.455000000     6.908000000     0.428000000
H    -2.106000000     6.069000000     0.727000000
H    -1.785000000     7.547000000     0.671000000
O     3.121000000     4.408000000    -1.613000000
H     2.397000000     4.226000000    -2.213000000
H     2.729000000     4.356000000    -0.742000000
O    -1.543000000     4.558000000     1.116000000
H    -2.230000000     4.077000000     1.577000000
H    -1.463000000     4.111000000     0.273000000
O     0.065000000     6.158000000     2.818000000
H    -0.263000000     5.383000000     2.362000000
H     0.182000000     6.810000000     2.127000000
O    -2.414000000     4.748000000    -2.179000000
H    -2.527000000     3.855000000    -2.506000000
H    -3.046000000     5.267000000    -2.676000000
O    -6.314000000    -3.530000000     1.563000000
H    -6.777000000    -4.054000000     2.217000000
H    -5.435000000    -3.417000000     1.925000000
O     6.007000000     1.303000000     0.982000000
H     5.712000000     0.556000000     1.503000000
H     6.638000000     0.931000000     0.366000000
O     3.649000000    -4.223000000     0.556000000
H     4.198000000    -3.560000000     0.974000000
H     3.475000000    -4.860000000     1.250000000
O    -2.453000000    -4.789000000     4.743000000
H    -1.771000000    -4.328000000     5.232000000
H    -2.048000000    -4.990000000     3.899000000
