158
-3045.95201
C     0.006000000     0.510000000    -1.363000000
H     0.104000000     0.816000000    -2.402000000
C     0.346000000    -0.774000000    -0.961000000
H     0.633000000    -1.452000000    -1.760000000
C     0.269000000    -1.129000000     0.359000000
H     0.547000000    -2.122000000     0.747000000
C    -0.164000000    -0.229000000     1.271000000
H    -0.099000000    -0.501000000     2.322000000
C    -0.604000000     1.044000000     0.833000000
H    -0.988000000     1.674000000     1.632000000
C    -0.519000000     1.471000000    -0.477000000
C    -0.850000000     2.877000000    -0.856000000
O    -1.243000000     3.640000000     0.081000000
O    -0.626000000     3.283000000    -1.973000000
O     2.727000000    -0.731000000    -4.046000000
H     3.583000000    -1.097000000    -3.822000000
H     2.438000000    -0.292000000    -3.246000000
O     3.303000000    -2.104000000     0.839000000
H     3.107000000    -1.172000000     0.742000000
H     3.413000000    -2.420000000    -0.058000000
O     3.853000000    -3.234000000    -1.686000000
H     4.573000000    -3.541000000    -2.237000000
H     3.077000000    -3.312000000    -2.242000000
O    -5.195000000     6.527000000     0.993000000
H    -4.249000000     6.409000000     0.910000000
H    -5.554000000     5.642000000     0.925000000
O     5.689000000    -2.622000000     1.973000000
H     5.575000000    -3.099000000     2.795000000
H     4.798000000    -2.415000000     1.691000000
O    -4.253000000    -3.167000000     1.500000000
H    -4.943000000    -3.250000000     2.158000000
H    -3.441000000    -3.313000000     1.984000000
O    -1.861000000     6.697000000    -3.723000000
H    -2.536000000     6.142000000    -4.115000000
H    -2.092000000     6.737000000    -2.795000000
O    -0.758000000    -6.294000000     3.248000000
H    -0.143000000    -6.434000000     2.528000000
H    -1.159000000    -5.446000000     3.058000000
O     0.696000000     6.601000000     2.342000000
H     0.368000000     7.044000000     1.559000000
H     0.131000000     5.835000000     2.438000000
O    -1.385000000     2.565000000     5.043000000
H    -0.740000000     3.229000000     5.288000000
H    -1.107000000     1.778000000     5.511000000
O     0.056000000     5.970000000    -1.807000000
H    -0.096000000     5.035000000    -1.943000000
H    -0.383000000     6.395000000    -2.544000000
O    -0.861000000     0.501000000    -6.879000000
H    -1.743000000     0.212000000    -7.112000000
H    -0.972000000     0.960000000    -6.046000000
O    -3.543000000     3.429000000    -5.648000000
H    -4.084000000     2.686000000    -5.915000000
H    -4.075000000     3.892000000    -5.001000000
O     1.838000000     2.121000000     6.168000000
H     1.514000000     1.685000000     5.380000000
H     2.087000000     1.405000000     6.753000000
O    -3.186000000    -2.523000000    -1.239000000
H    -3.463000000    -2.670000000    -0.335000000
H    -2.237000000    -2.651000000    -1.223000000
O    -0.866000000    -4.968000000     0.048000000
H    -0.893000000    -4.696000000    -0.869000000
H    -0.919000000    -5.923000000     0.017000000
O    -1.729000000    -1.482000000    -4.760000000
H    -0.780000000    -1.455000000    -4.876000000
H    -2.041000000    -2.049000000    -5.466000000
O     2.231000000    -5.630000000    -2.369000000
H     1.363000000    -5.292000000    -2.151000000
H     2.713000000    -5.604000000    -1.543000000
O    -1.182000000     4.446000000     2.568000000
H    -1.117000000     3.765000000     3.237000000
H    -1.082000000     3.978000000     1.739000000
O     1.946000000     3.444000000    -2.935000000
H     2.318000000     2.695000000    -2.468000000
H     1.019000000     3.438000000    -2.698000000
O    -3.080000000     7.573000000    -0.962000000
H    -2.646000000     7.082000000    -0.265000000
H    -4.009000000     7.368000000    -0.857000000
O    -4.282000000     1.690000000     2.525000000
H    -5.125000000     2.144000000     2.499000000
H    -3.694000000     2.248000000     2.017000000
O     1.658000000     0.389000000     3.894000000
H     2.426000000     0.818000000     3.518000000
H     1.804000000    -0.544000000     3.737000000
O     5.142000000    -0.785000000    -2.019000000
H     6.069000000    -0.939000000    -1.838000000
H     4.762000000    -1.662000000    -2.083000000
O    -1.124000000     2.171000000    -4.493000000
H    -0.871000000     2.496000000    -3.629000000
H    -1.845000000     2.740000000    -4.761000000
O     0.320000000    -3.878000000    -5.286000000
H     0.553000000    -3.110000000    -5.807000000
H     0.740000000    -4.610000000    -5.737000000
O     2.725000000     0.589000000     0.930000000
H     1.845000000     0.240000000     0.785000000
H     2.602000000     1.285000000     1.575000000
O     3.991000000     4.739000000    -4.009000000
H     3.273000000     4.264000000    -3.591000000
H     4.783000000     4.325000000    -3.665000000
O     0.425000000    -3.424000000     4.686000000
H     0.806000000    -4.283000000     4.868000000
H     1.086000000    -2.975000000     4.160000000
O     1.016000000     7.848000000    -0.126000000
H     0.571000000     7.185000000    -0.654000000
H     1.108000000     8.599000000    -0.712000000
O     1.022000000    -1.411000000    -6.148000000
H     1.588000000    -0.951000000    -5.528000000
H     0.633000000    -0.716000000    -6.678000000
O     2.924000000     3.275000000     2.005000000
H     2.260000000     3.711000000     2.539000000
H     2.992000000     3.816000000     1.218000000
O    -2.419000000     6.334000000     1.310000000
H    -2.242000000     5.395000000     1.248000000
H    -1.937000000     6.618000000     2.087000000
O     2.430000000     4.866000000    -0.137000000
H     2.344000000     4.403000000    -0.970000000
H     1.609000000     5.350000000    -0.046000000
O    -1.538000000    -3.834000000     2.554000000
H    -1.325000000    -4.053000000     1.647000000
H    -0.833000000    -3.249000000     2.831000000
O    -1.074000000     0.555000000     7.348000000
H    -0.209000000     0.403000000     7.730000000
H    -1.196000000    -0.170000000     6.736000000
O     4.990000000    -3.870000000     4.157000000
H     5.613000000    -3.698000000     4.863000000
H     5.073000000    -4.808000000     3.987000000
O    -0.399000000    -4.454000000    -2.585000000
H    -0.118000000    -4.189000000    -3.461000000
H    -0.463000000    -5.408000000    -2.632000000
O     2.636000000    -2.504000000     3.428000000
H     2.777000000    -2.286000000     2.506000000
H     3.469000000    -2.876000000     3.716000000
O    -3.906000000     1.913000000     5.878000000
H    -3.935000000     1.195000000     5.246000000
H    -3.136000000     2.423000000     5.626000000
O     2.722000000    -5.233000000     0.497000000
H     3.427000000    -5.024000000     1.110000000
H     2.539000000    -6.160000000     0.649000000
O     2.223000000     2.200000000    -5.852000000
H     2.534000000     2.776000000    -5.154000000
H     1.333000000     1.965000000    -5.591000000
O     3.202000000     1.198000000    -1.778000000
H     2.969000000     0.995000000    -0.872000000
H     3.928000000     0.606000000    -1.977000000
O    -3.917000000     3.462000000     0.446000000
H    -2.982000000     3.577000000     0.278000000
H    -4.249000000     3.021000000    -0.337000000
O    -3.849000000    -0.578000000    -2.938000000
H    -3.786000000    -0.882000000    -2.032000000
H    -3.138000000    -1.031000000    -3.392000000
O    -3.727000000     5.708000000     3.876000000
H    -3.441000000     6.191000000     3.101000000
H    -3.322000000     4.845000000     3.783000000
O    -4.530000000     1.991000000    -1.777000000
H    -4.989000000     2.171000000    -2.597000000
H    -3.965000000     1.245000000    -1.977000000
O    -1.743000000    -1.999000000     6.191000000
H    -1.162000000    -2.381000000     5.533000000
H    -2.625000000    -2.193000000     5.874000000
