158
-3020.42109
C     0.641000000    -1.273000000    -0.261000000
H     1.152000000    -2.181000000    -0.572000000
C     0.729000000    -0.069000000    -1.057000000
H     1.343000000    -0.042000000    -1.954000000
C    -0.028000000     0.993000000    -0.741000000
H    -0.078000000     1.832000000    -1.461000000
C    -0.808000000     0.940000000     0.438000000
H    -1.462000000     1.794000000     0.594000000
C    -0.829000000    -0.176000000     1.244000000
H    -1.384000000    -0.074000000     2.173000000
C    -0.122000000    -1.311000000     0.892000000
C     0.018000000    -2.487000000     1.872000000
O    -0.536000000    -2.475000000     3.030000000
O     0.756000000    -3.437000000     1.587000000
O     3.919000000    -6.634000000     4.329000000
H     4.496000000    -6.730000000     3.571000000
H     3.070000000    -6.400000000     3.955000000
O     1.928000000     0.696000000    -4.944000000
H     1.423000000     1.225000000    -5.561000000
H     1.978000000    -0.167000000    -5.353000000
O    -2.628000000    -2.557000000     4.397000000
H    -2.384000000    -2.539000000     5.322000000
H    -1.797000000    -2.480000000     3.928000000
O     2.665000000    -4.011000000    -3.656000000
H     1.850000000    -4.513000000    -3.653000000
H     3.355000000    -4.674000000    -3.665000000
O    -1.027000000    -5.493000000     1.996000000
H    -0.456000000    -4.725000000     1.984000000
H    -1.412000000    -5.520000000     1.120000000
O     1.727000000     2.873000000    -6.473000000
H     2.530000000     3.358000000    -6.281000000
H     1.698000000     2.826000000    -7.428000000
O     4.496000000     0.369000000     2.579000000
H     3.737000000    -0.142000000     2.299000000
H     5.063000000     0.397000000     1.808000000
O    -0.427000000    -7.861000000     3.474000000
H     0.208000000    -7.659000000     4.160000000
H    -0.648000000    -7.010000000     3.094000000
O     4.447000000    -3.667000000     4.414000000
H     4.271000000    -2.756000000     4.180000000
H     4.738000000    -4.072000000     3.597000000
O     2.643000000    -1.221000000     6.855000000
H     1.911000000    -1.330000000     6.248000000
H     3.374000000    -0.945000000     6.302000000
O     4.511000000    -2.945000000    -2.039000000
H     5.057000000    -3.652000000    -1.697000000
H     3.791000000    -3.392000000    -2.485000000
O     4.193000000    -0.258000000    -2.518000000
H     3.448000000    -0.514000000    -3.061000000
H     4.613000000    -1.085000000    -2.282000000
O    -0.635000000     0.281000000    -4.232000000
H    -0.868000000    -0.253000000    -4.992000000
H     0.317000000     0.208000000    -4.171000000
O    -2.831000000    -0.036000000    -2.628000000
H    -1.950000000    -0.116000000    -2.995000000
H    -3.396000000     0.092000000    -3.389000000
O    -3.170000000    -2.094000000    -0.245000000
H    -2.868000000    -1.205000000    -0.431000000
H    -2.412000000    -2.649000000    -0.428000000
O    -4.416000000     5.395000000    -2.524000000
H    -5.330000000     5.660000000    -2.621000000
H    -4.318000000     5.207000000    -1.591000000
O     0.599000000     0.910000000     3.752000000
H     0.500000000     0.070000000     4.200000000
H     1.194000000     0.725000000     3.025000000
O     5.126000000    -3.822000000     1.610000000
H     5.912000000    -3.277000000     1.622000000
H     5.144000000    -4.249000000     0.754000000
O     2.399000000    -5.185000000     2.499000000
H     3.178000000    -4.631000000     2.557000000
H     1.704000000    -4.593000000     2.212000000
O    -0.342000000     6.324000000     2.399000000
H    -0.177000000     5.420000000     2.664000000
H    -1.262000000     6.473000000     2.615000000
O    -0.392000000     2.974000000    -4.821000000
H    -0.861000000     2.207000000    -5.150000000
H     0.321000000     3.105000000    -5.445000000
O    -0.515000000     4.555000000    -1.333000000
H    -0.918000000     3.933000000    -1.939000000
H    -1.026000000     4.471000000    -0.528000000
O     0.225000000    -4.589000000    -0.791000000
H     0.547000000    -4.224000000     0.033000000
H     0.941000000    -5.141000000    -1.104000000
O     1.525000000     6.157000000    -2.191000000
H     1.944000000     6.182000000    -1.331000000
H     0.865000000     5.468000000    -2.116000000
O     0.421000000    -1.433000000     5.470000000
H    -0.381000000    -1.224000000     5.950000000
H     0.138000000    -2.035000000     4.783000000
O    -4.080000000     1.340000000     0.353000000
H    -3.370000000     1.103000000    -0.243000000
H    -4.680000000     0.595000000     0.320000000
O     2.049000000     3.307000000    -3.365000000
H     1.774000000     2.489000000    -3.778000000
H     1.299000000     3.893000000    -3.471000000
O    -1.436000000    -3.588000000    -2.856000000
H    -1.498000000    -4.466000000    -3.232000000
H    -0.718000000    -3.647000000    -2.226000000
O     1.905000000    -6.734000000    -1.103000000
H     2.403000000    -7.039000000    -0.344000000
H     2.546000000    -6.702000000    -1.813000000
O     4.985000000     2.033000000    -4.539000000
H     5.169000000     2.858000000    -4.088000000
H     4.059000000     1.867000000    -4.366000000
O    -1.940000000    -6.208000000    -0.597000000
H    -1.190000000    -5.636000000    -0.763000000
H    -1.650000000    -7.073000000    -0.886000000
O    -3.186000000    -5.312000000     3.748000000
H    -2.411000000    -5.562000000     3.244000000
H    -2.903000000    -4.554000000     4.260000000
O    -2.437000000     2.667000000    -1.839000000
H    -3.369000000     2.860000000    -1.942000000
H    -2.363000000     1.733000000    -2.036000000
O    -0.156000000     7.619000000    -0.406000000
H    -0.938000000     7.211000000    -0.033000000
H     0.137000000     7.005000000    -1.079000000
O    -2.391000000     2.102000000     3.662000000
H    -1.590000000     1.578000000     3.668000000
H    -3.021000000     1.583000000     4.162000000
O    -5.235000000     5.267000000     0.097000000
H    -5.056000000     4.709000000     0.853000000
H    -5.916000000     5.869000000     0.398000000
O    -1.688000000    -2.132000000     7.059000000
H    -1.347000000    -2.547000000     7.851000000
H    -2.603000000    -1.939000000     7.264000000
O    -1.625000000     4.489000000    -6.952000000
H    -2.239000000     5.114000000    -6.567000000
H    -1.209000000     4.067000000    -6.200000000
O     5.889000000     2.925000000     0.425000000
H     5.547000000     3.468000000     1.135000000
H     5.148000000     2.812000000    -0.170000000
O     2.312000000     5.901000000     0.312000000
H     2.885000000     5.377000000     0.871000000
H     1.661000000     6.265000000     0.911000000
O    -4.399000000     3.645000000     2.186000000
H    -4.438000000     2.901000000     1.584000000
H    -3.725000000     3.403000000     2.821000000
O    -2.136000000     4.721000000     1.054000000
H    -2.588000000     3.928000000     1.343000000
H    -2.837000000     5.352000000     0.892000000
O     4.259000000     5.253000000    -3.407000000
H     3.553000000     4.821000000    -2.928000000
H     4.267000000     6.148000000    -3.068000000
O     0.585000000     3.699000000     3.078000000
H     0.307000000     3.528000000     2.179000000
H     0.820000000     2.838000000     3.424000000
O    -4.068000000    -0.113000000     4.454000000
H    -4.866000000     0.123000000     3.982000000
H    -3.886000000    -1.013000000     4.183000000
O     3.679000000     2.309000000    -1.029000000
H     3.066000000     2.672000000    -1.667000000
H     4.089000000     1.572000000    -1.483000000
O     1.841000000     2.162000000     1.259000000
H     1.270000000     1.607000000     0.727000000
H     2.660000000     2.203000000     0.767000000
O     3.047000000    -1.880000000     2.164000000
H     2.304000000    -2.453000000     1.972000000
H     3.812000000    -2.372000000     1.864000000
