158
-3055.12065
C     0.777000000    -1.230000000    -0.313000000
H     1.480000000    -2.010000000    -0.594000000
C     0.614000000    -0.146000000    -1.162000000
H     1.367000000    -0.078000000    -1.943000000
C    -0.123000000     0.973000000    -0.764000000
H    -0.260000000     1.818000000    -1.424000000
C    -0.766000000     0.994000000     0.503000000
H    -1.334000000     1.831000000     0.901000000
C    -0.699000000    -0.157000000     1.283000000
H    -1.318000000    -0.225000000     2.174000000
C     0.006000000    -1.320000000     0.840000000
C     0.108000000    -2.513000000     1.772000000
O    -0.253000000    -2.361000000     2.926000000
O     0.414000000    -3.645000000     1.329000000
O    -0.130000000     2.477000000     3.632000000
H     0.427000000     2.917000000     4.275000000
H    -0.666000000     1.877000000     4.150000000
O     3.097000000     0.332000000    -3.685000000
H     2.628000000    -0.195000000    -4.332000000
H     2.711000000     1.204000000    -3.761000000
O    -0.688000000    -6.061000000     2.110000000
H    -1.315000000    -5.385000000     2.371000000
H     0.074000000    -5.573000000     1.799000000
O    -0.562000000    -8.249000000     0.439000000
H     0.342000000    -8.511000000     0.616000000
H    -0.622000000    -7.356000000     0.778000000
O     3.539000000    -0.751000000     1.342000000
H     3.770000000    -0.731000000     0.414000000
H     2.998000000     0.028000000     1.472000000
O     0.350000000     5.880000000     1.928000000
H    -0.548000000     5.561000000     2.019000000
H     0.718000000     5.360000000     1.214000000
O     4.713000000    -3.399000000    -0.223000000
H     4.630000000    -2.556000000    -0.668000000
H     4.446000000    -4.044000000    -0.878000000
O    -3.876000000     3.928000000     4.329000000
H    -4.826000000     3.811000000     4.328000000
H    -3.525000000     3.038000000     4.304000000
O     4.283000000    -1.048000000    -1.506000000
H     5.100000000    -1.297000000    -1.937000000
H     3.723000000    -0.736000000    -2.217000000
O    -2.220000000    -1.111000000    -1.824000000
H    -2.758000000    -0.476000000    -2.297000000
H    -1.737000000    -0.588000000    -1.185000000
O     0.399000000    -0.785000000     5.141000000
H    -0.171000000    -1.166000000     4.474000000
H     1.284000000    -1.030000000     4.869000000
O     4.384000000    -4.367000000     2.303000000
H     5.284000000    -4.690000000     2.257000000
H     4.320000000    -3.735000000     1.587000000
O    -3.592000000     2.986000000    -2.657000000
H    -3.059000000     2.429000000    -3.225000000
H    -4.084000000     2.371000000    -2.112000000
O    -4.251000000    -5.327000000     0.300000000
H    -4.429000000    -6.254000000     0.456000000
H    -3.417000000    -5.319000000    -0.171000000
O    -0.840000000    -2.931000000     6.586000000
H    -0.829000000    -2.032000000     6.258000000
H    -0.331000000    -3.426000000     5.944000000
O    -0.589000000     4.378000000    -4.404000000
H    -1.378000000     3.996000000    -4.789000000
H    -0.887000000     4.763000000    -3.580000000
O     2.781000000    -3.792000000    -3.412000000
H     3.500000000    -4.400000000    -3.241000000
H     2.608000000    -3.882000000    -4.349000000
O     2.155000000    -5.499000000     1.216000000
H     1.566000000    -4.746000000     1.165000000
H     3.004000000    -5.125000000     1.450000000
O     0.987000000    -7.231000000     4.396000000
H     0.421000000    -6.515000000     4.685000000
H     0.776000000    -7.344000000     3.469000000
O     0.862000000    -4.062000000     4.799000000
H     1.780000000    -4.284000000     4.640000000
H     0.611000000    -3.529000000     4.045000000
O    -4.466000000     1.133000000    -0.764000000
H    -4.624000000     1.607000000     0.053000000
H    -4.996000000     0.340000000    -0.688000000
O     5.941000000    -0.303000000    -4.320000000
H     6.303000000    -0.619000000    -3.492000000
H     5.016000000    -0.145000000    -4.132000000
O     0.860000000    -4.656000000    -1.775000000
H     1.604000000    -4.451000000    -2.342000000
H     1.244000000    -5.139000000    -1.043000000
O    -1.580000000    -4.335000000    -0.205000000
H    -1.211000000    -4.410000000    -1.085000000
H    -0.817000000    -4.277000000     0.370000000
O    -4.456000000     0.211000000     3.122000000
H    -4.103000000    -0.261000000     3.876000000
H    -5.402000000     0.220000000     3.265000000
O    -2.151000000     5.167000000    -2.021000000
H    -2.948000000     5.697000000    -1.999000000
H    -2.463000000     4.263000000    -1.967000000
O     1.792000000     1.439000000     1.742000000
H     1.333000000     1.046000000     0.999000000
H     1.099000000     1.840000000     2.266000000
O     1.777000000     2.668000000    -4.077000000
H     0.893000000     2.852000000    -4.397000000
H     2.258000000     3.482000000    -4.221000000
O     3.433000000     1.233000000     3.931000000
H     3.804000000     2.115000000     3.887000000
H     2.887000000     1.165000000     3.148000000
O     3.867000000     4.176000000     1.328000000
H     3.962000000     3.996000000     2.264000000
H     3.290000000     3.482000000     1.008000000
O    -2.809000000     3.396000000    -5.791000000
H    -3.682000000     3.771000000    -5.678000000
H    -2.936000000     2.675000000    -6.408000000
O     5.386000000     1.332000000    -0.769000000
H     4.972000000     0.474000000    -0.674000000
H     4.655000000     1.938000000    -0.893000000
O    -4.247000000     2.991000000     1.734000000
H    -3.918000000     2.163000000     2.083000000
H    -4.000000000     3.643000000     2.389000000
O    -3.069000000    -5.840000000     3.787000000
H    -2.820000000    -4.965000000     4.085000000
H    -4.026000000    -5.835000000     3.803000000
O    -3.403000000    -1.215000000     5.806000000
H    -3.372000000    -1.823000000     5.067000000
H    -3.285000000    -1.768000000     6.577000000
O    -1.913000000     4.619000000     1.237000000
H    -2.636000000     4.000000000     1.136000000
H    -1.405000000     4.527000000     0.431000000
O    -0.606000000    -2.876000000    -3.252000000
H    -1.199000000    -2.317000000    -2.751000000
H    -0.350000000    -3.564000000    -2.639000000
O    -2.377000000     1.758000000     5.624000000
H    -2.634000000     0.839000000     5.546000000
H    -2.857000000     2.077000000     6.388000000
O    -3.649000000    -2.567000000     0.708000000
H    -2.705000000    -2.682000000     0.603000000
H    -4.024000000    -3.403000000     0.431000000
O     2.955000000     5.220000000    -4.306000000
H     2.569000000     5.989000000    -4.724000000
H     3.866000000     5.220000000    -4.599000000
O     0.335000000     4.983000000    -0.734000000
H     1.244000000     5.283000000    -0.732000000
H    -0.079000000     5.478000000    -1.442000000
O     2.097000000    -8.176000000     1.034000000
H     2.224000000    -7.296000000     0.678000000
H     2.956000000    -8.421000000     1.379000000
O    -3.179000000    -2.703000000     3.513000000
H    -3.448000000    -2.583000000     2.602000000
H    -2.230000000    -2.581000000     3.501000000
O    -2.601000000     0.758000000    -6.172000000
H    -3.202000000     1.015000000    -5.472000000
H    -2.081000000     0.049000000    -5.793000000
O     2.952000000     2.458000000    -1.353000000
H     2.982000000     3.411000000    -1.439000000
H     2.482000000     2.161000000    -2.132000000
O     1.539000000    -1.593000000    -5.142000000
H     0.971000000    -1.931000000    -5.834000000
H     1.240000000    -2.039000000    -4.349000000
O     2.750000000     5.816000000    -1.174000000
H     3.169000000     5.665000000    -2.021000000
H     3.478000000     5.951000000    -0.567000000
O     3.386000000    -1.424000000     4.512000000
H     3.241000000    -1.988000000     3.753000000
H     3.545000000    -0.557000000     4.140000000
