158
-3066.74092
C     1.437000000    -0.227000000     0.286000000
H     2.503000000    -0.130000000     0.474000000
C     0.983000000     0.536000000    -0.778000000
H     1.710000000     0.936000000    -1.481000000
C    -0.394000000     0.642000000    -0.985000000
H    -0.638000000     1.315000000    -1.805000000
C    -1.294000000     0.074000000    -0.098000000
H    -2.341000000     0.364000000    -0.088000000
C    -0.872000000    -0.808000000     0.892000000
H    -1.540000000    -1.328000000     1.574000000
C     0.522000000    -0.943000000     1.116000000
C     1.098000000    -1.847000000     2.173000000
O     0.433000000    -2.785000000     2.587000000
O     2.190000000    -1.687000000     2.691000000
O     2.200000000    -6.198000000     2.777000000
H     1.834000000    -5.763000000     3.547000000
H     3.050000000    -5.776000000     2.645000000
O    -1.166000000     3.292000000     0.773000000
H    -0.623000000     2.816000000     0.144000000
H    -0.586000000     3.449000000     1.518000000
O     2.774000000    -0.892000000    -3.807000000
H     1.867000000    -1.179000000    -3.700000000
H     2.731000000    -0.205000000    -4.473000000
O     0.054000000    -6.644000000     1.168000000
H     0.260000000    -6.246000000     0.322000000
H     0.825000000    -6.470000000     1.708000000
O    -1.956000000    -0.114000000    -7.245000000
H    -1.274000000     0.110000000    -7.877000000
H    -1.884000000    -1.063000000    -7.141000000
O     5.096000000    -1.637000000     2.720000000
H     4.157000000    -1.546000000     2.558000000
H     5.219000000    -1.299000000     3.607000000
O    -0.158000000    -4.438000000     6.011000000
H    -0.660000000    -3.733000000     5.601000000
H     0.647000000    -4.490000000     5.495000000
O     1.493000000     6.918000000     0.184000000
H     2.379000000     6.732000000    -0.124000000
H     0.960000000     6.209000000    -0.176000000
O    -4.008000000     6.649000000     0.037000000
H    -3.938000000     5.784000000     0.442000000
H    -3.417000000     6.609000000    -0.716000000
O     2.595000000    -3.420000000    -1.432000000
H     2.829000000    -2.600000000    -1.866000000
H     3.292000000    -3.559000000    -0.791000000
O     4.908000000    -1.603000000    -0.797000000
H     5.072000000    -0.661000000    -0.831000000
H     4.901000000    -1.812000000     0.137000000
O     5.641000000     1.019000000    -0.879000000
H     6.036000000     1.455000000    -1.634000000
H     6.362000000     0.918000000    -0.257000000
O    -1.166000000    -0.678000000    -3.736000000
H    -0.672000000    -1.455000000    -3.474000000
H    -1.927000000    -0.671000000    -3.156000000
O    -0.213000000     1.053000000     5.361000000
H    -0.961000000     1.411000000     4.884000000
H    -0.603000000     0.511000000     6.046000000
O     4.363000000    -4.699000000     2.149000000
H     4.732000000    -5.050000000     1.339000000
H     4.483000000    -3.752000000     2.076000000
O    -5.053000000     3.579000000    -1.539000000
H    -5.137000000     2.776000000    -1.026000000
H    -4.743000000     3.285000000    -2.395000000
O    -0.310000000     1.758000000    -4.436000000
H    -1.184000000     2.122000000    -4.577000000
H    -0.467000000     0.842000000    -4.206000000
O    -4.855000000     2.266000000    -4.083000000
H    -5.408000000     1.491000000    -4.181000000
H    -3.965000000     1.945000000    -4.229000000
O     0.749000000    -5.409000000    -1.144000000
H     1.420000000    -4.805000000    -0.824000000
H     0.199000000    -4.874000000    -1.716000000
O     2.066000000    -4.139000000     4.571000000
H     1.695000000    -3.712000000     3.799000000
H     2.940000000    -3.758000000     4.658000000
O    -5.296000000     1.316000000     0.132000000
H    -4.688000000     1.737000000     0.740000000
H    -5.418000000     0.436000000     0.486000000
O     5.295000000    -1.434000000    -3.676000000
H     5.480000000    -1.311000000    -2.745000000
H     4.401000000    -1.110000000    -3.788000000
O     4.545000000     2.512000000     3.818000000
H     3.651000000     2.247000000     4.031000000
H     5.022000000     1.688000000     3.718000000
O    -3.478000000    -3.021000000    -0.994000000
H    -2.637000000    -3.190000000    -0.568000000
H    -3.650000000    -3.811000000    -1.506000000
O    -3.149000000     0.095000000     3.255000000
H    -2.443000000    -0.490000000     3.528000000
H    -3.709000000     0.173000000     4.028000000
O    -0.168000000     6.442000000    -4.221000000
H     0.197000000     7.215000000    -3.789000000
H    -1.051000000     6.706000000    -4.479000000
O     3.880000000    -0.664000000     5.963000000
H     3.627000000    -1.258000000     6.669000000
H     3.077000000    -0.188000000     5.751000000
O     3.538000000     3.034000000     0.275000000
H     4.308000000     3.345000000     0.751000000
H     3.881000000     2.383000000    -0.337000000
O     2.170000000     1.079000000    -5.619000000
H     1.249000000     1.259000000    -5.808000000
H     2.585000000     1.941000000    -5.600000000
O     0.530000000    -6.961000000     5.254000000
H    -0.021000000    -6.192000000     5.399000000
H     1.126000000    -6.973000000     6.003000000
O     1.332000000     2.787000000     1.889000000
H     2.115000000     3.041000000     1.401000000
H     1.394000000     1.835000000     1.965000000
O    -2.128000000     4.038000000    -6.987000000
H    -2.171000000     4.769000000    -6.371000000
H    -2.420000000     3.280000000    -6.480000000
O    -3.479000000     2.387000000     1.846000000
H    -3.106000000     1.640000000     2.313000000
H    -2.719000000     2.885000000     1.546000000
O    -1.074000000    -3.778000000     0.745000000
H    -0.576000000    -4.592000000     0.817000000
H    -0.827000000    -3.277000000     1.523000000
O    -2.940000000    -4.011000000     3.426000000
H    -3.825000000    -4.104000000     3.780000000
H    -2.729000000    -4.878000000     3.079000000
O    -1.045000000     5.512000000    -0.808000000
H    -0.789000000     4.658000000    -0.459000000
H    -0.865000000     5.451000000    -1.746000000
O    -3.672000000    -0.562000000    -2.525000000
H    -3.584000000    -1.366000000    -2.013000000
H    -4.468000000    -0.692000000    -3.041000000
O    -4.571000000    -1.330000000     1.044000000
H    -4.070000000    -1.473000000     0.241000000
H    -3.952000000    -0.909000000     1.641000000
O     1.411000000     3.958000000    -4.032000000
H     0.920000000     3.148000000    -4.165000000
H     0.741000000     4.641000000    -3.998000000
O     1.541000000     4.382000000    -1.034000000
H     2.259000000     4.186000000    -0.432000000
H     1.777000000     3.929000000    -1.844000000
O    -5.719000000    -4.291000000     1.146000000
H    -5.341000000    -4.978000000     0.596000000
H    -5.003000000    -3.670000000     1.279000000
O    -1.440000000    -1.958000000     4.291000000
H    -2.129000000    -2.524000000     3.944000000
H    -0.653000000    -2.218000000     3.813000000
O    -2.877000000     1.636000000    -5.583000000
H    -2.433000000     0.967000000    -6.105000000
H    -3.652000000     1.865000000    -6.096000000
O    -2.317000000    -6.725000000     2.680000000
H    -2.928000000    -6.828000000     1.951000000
H    -1.459000000    -6.644000000     2.263000000
O     3.891000000     5.184000000    -3.112000000
H     3.783000000     5.845000000    -3.796000000
H     3.226000000     4.524000000    -3.311000000
O    -0.409000000    -2.444000000    -1.753000000
H    -0.150000000    -1.632000000    -1.317000000
H    -0.923000000    -2.915000000    -1.097000000
O    -3.315000000    -2.360000000    -4.980000000
H    -4.212000000    -2.329000000    -4.648000000
H    -2.919000000    -1.543000000    -4.676000000
O     2.471000000     0.701000000     3.938000000
H     2.360000000    -0.047000000     3.351000000
H     1.605000000     0.834000000     4.323000000
