158
-3043.35275
C    -0.050000000     0.606000000    -1.366000000
H     0.014000000     0.974000000    -2.386000000
C    -0.216000000    -0.731000000    -1.063000000
H    -0.127000000    -1.462000000    -1.863000000
C    -0.195000000    -1.216000000     0.236000000
H    -0.174000000    -2.243000000     0.365000000
C    -0.021000000    -0.297000000     1.278000000
H     0.129000000    -0.618000000     2.306000000
C     0.111000000     1.102000000     1.016000000
H     0.141000000     1.773000000     1.871000000
C     0.116000000     1.477000000    -0.340000000
C     0.256000000     2.969000000    -0.650000000
O     0.695000000     3.738000000     0.178000000
O     0.126000000     3.334000000    -1.801000000
O     3.564000000    -1.019000000     0.136000000
H     3.302000000    -0.141000000     0.413000000
H     3.333000000    -1.056000000    -0.792000000
O     3.003000000    -1.684000000    -2.337000000
H     2.179000000    -1.633000000    -2.821000000
H     3.550000000    -2.274000000    -2.857000000
O     2.917000000    -6.995000000     1.299000000
H     3.822000000    -7.304000000     1.275000000
H     2.864000000    -6.350000000     0.594000000
O     5.531000000    -1.688000000     1.881000000
H     5.290000000    -2.587000000     2.106000000
H     4.776000000    -1.352000000     1.397000000
O    -1.998000000    -6.394000000     3.241000000
H    -1.266000000    -6.825000000     2.801000000
H    -2.777000000    -6.735000000     2.801000000
O     0.265000000     8.610000000     2.194000000
H     0.359000000     9.078000000     1.364000000
H     0.109000000     7.701000000     1.940000000
O    -0.893000000     4.066000000     3.939000000
H    -0.185000000     3.705000000     4.473000000
H    -1.679000000     3.616000000     4.249000000
O     0.486000000     6.142000000    -1.777000000
H     0.558000000     5.190000000    -1.707000000
H     0.869000000     6.349000000    -2.629000000
O    -2.546000000    -5.480000000    -2.422000000
H    -1.808000000    -6.022000000    -2.699000000
H    -3.128000000    -6.085000000    -1.961000000
O    -0.084000000     1.330000000    -6.510000000
H    -1.036000000     1.428000000    -6.539000000
H     0.205000000     1.978000000    -5.868000000
O    -2.289000000     4.756000000    -4.275000000
H    -3.001000000     4.303000000    -4.727000000
H    -2.543000000     4.741000000    -3.353000000
O     1.072000000     2.855000000     5.394000000
H     1.959000000     3.213000000     5.354000000
H     1.181000000     1.923000000     5.206000000
O    -2.909000000    -0.537000000    -0.004000000
H    -2.867000000    -1.393000000    -0.430000000
H    -1.996000000    -0.312000000     0.173000000
O    -2.804000000    -3.073000000    -1.140000000
H    -3.005000000    -2.587000000    -1.940000000
H    -2.196000000    -3.756000000    -1.421000000
O    -2.700000000     1.473000000    -4.118000000
H    -1.920000000     2.014000000    -3.994000000
H    -3.020000000     1.711000000    -4.989000000
O     0.830000000    -4.549000000    -1.951000000
H     0.193000000    -4.881000000    -1.318000000
H     1.665000000    -4.570000000    -1.484000000
O     1.530000000     0.146000000     5.178000000
H     1.201000000    -0.656000000     5.583000000
H     2.445000000    -0.048000000     4.973000000
O    -0.310000000     5.703000000     1.669000000
H    -0.215000000     5.331000000     2.546000000
H    -0.081000000     4.986000000     1.078000000
O     2.722000000     3.760000000    -2.835000000
H     2.947000000     2.835000000    -2.736000000
H     1.973000000     3.889000000    -2.253000000
O    -3.040000000     2.891000000     1.489000000
H    -2.825000000     2.537000000     0.626000000
H    -2.217000000     2.852000000     1.976000000
O     3.103000000     0.746000000     2.503000000
H     3.353000000     1.537000000     2.025000000
H     2.744000000     1.070000000     3.329000000
O    -0.036000000     3.123000000    -4.424000000
H     0.056000000     2.834000000    -3.516000000
H    -0.355000000     4.023000000    -4.357000000
O     3.925000000     2.008000000    -0.253000000
H     3.910000000     2.636000000     0.469000000
H     4.685000000     2.263000000    -0.777000000
O    -3.937000000     0.611000000     4.351000000
H    -4.713000000     0.178000000     4.709000000
H    -3.266000000    -0.072000000     4.340000000
O     1.894000000     6.205000000    -4.269000000
H     1.977000000     5.285000000    -4.020000000
H     2.789000000     6.483000000    -4.463000000
O    -3.313000000    -3.802000000     4.181000000
H    -4.209000000    -4.111000000     4.046000000
H    -2.792000000    -4.288000000     3.542000000
O     0.636000000    -4.134000000     3.631000000
H     0.440000000    -5.003000000     3.282000000
H     0.792000000    -3.594000000     2.857000000
O     0.594000000     8.694000000    -0.638000000
H     0.822000000     7.866000000    -1.060000000
H    -0.027000000     9.106000000    -1.239000000
O     1.468000000    -6.300000000    -3.968000000
H     0.931000000    -5.693000000    -3.459000000
H     1.860000000    -5.757000000    -4.652000000
O     1.229000000    -1.264000000    -4.603000000
H     1.688000000    -1.987000000    -5.030000000
H     1.079000000    -0.628000000    -5.303000000
O     2.845000000     3.718000000     1.773000000
H     3.365000000     4.390000000     1.333000000
H     2.033000000     3.674000000     1.269000000
O     3.697000000     3.695000000     4.331000000
H     4.636000000     3.726000000     4.148000000
H     3.285000000     3.989000000     3.519000000
O    -2.313000000     7.349000000     0.602000000
H    -1.449000000     6.940000000     0.655000000
H    -2.778000000     7.024000000     1.373000000
O     4.926000000     5.412000000     0.324000000
H     5.853000000     5.202000000     0.433000000
H     4.702000000     5.064000000    -0.539000000
O    -3.542000000    -4.695000000     0.977000000
H    -3.566000000    -4.054000000     0.267000000
H    -4.454000000    -4.776000000     1.258000000
O    -3.546000000    -1.270000000    -3.052000000
H    -2.878000000    -0.590000000    -3.139000000
H    -4.377000000    -0.798000000    -3.112000000
O     4.414000000    -4.084000000     2.686000000
H     4.307000000    -3.825000000     3.601000000
H     4.957000000    -4.871000000     2.722000000
O    -0.929000000    -3.041000000    -3.837000000
H    -0.534000000    -3.629000000    -3.193000000
H    -0.331000000    -2.296000000    -3.880000000
O     2.174000000    -3.181000000     1.375000000
H     3.033000000    -3.376000000     1.747000000
H     2.253000000    -2.285000000     1.045000000
O     3.239000000    -4.760000000    -0.523000000
H     3.999000000    -4.219000000    -0.737000000
H     2.637000000    -4.164000000    -0.078000000
O     1.988000000     3.586000000    -5.973000000
H     1.154000000     3.560000000    -5.503000000
H     1.779000000     3.263000000    -6.849000000
O     0.271000000    -2.511000000     5.876000000
H     0.827000000    -2.906000000     6.548000000
H     0.318000000    -3.118000000     5.138000000
O    -5.110000000    -0.202000000     2.038000000
H    -4.755000000     0.387000000     2.704000000
H    -4.346000000    -0.479000000     1.533000000
O     3.254000000     1.060000000    -2.721000000
H     2.920000000     0.163000000    -2.737000000
H     3.308000000     1.279000000    -1.791000000
O    -2.064000000     5.160000000    -1.612000000
H    -1.563000000     4.363000000    -1.786000000
H    -1.598000000     5.583000000    -0.891000000
O    -3.138000000     2.099000000    -1.209000000
H    -3.346000000     1.168000000    -1.282000000
H    -3.339000000     2.458000000    -2.074000000
O    -2.187000000    -1.386000000     4.967000000
H    -1.313000000    -1.774000000     5.010000000
H    -2.784000000    -2.129000000     5.057000000
O    -1.002000000    -5.089000000     0.110000000
H    -1.911000000    -5.197000000     0.391000000
H    -0.487000000    -5.511000000     0.797000000
