158
-3022.82044
C     0.099000000    -1.434000000     0.252000000
H     0.232000000    -2.489000000     0.481000000
C     0.033000000    -0.435000000     1.237000000
H     0.060000000    -0.874000000     2.231000000
C    -0.070000000     0.899000000     0.899000000
H    -0.209000000     1.724000000     1.597000000
C    -0.182000000     1.185000000    -0.496000000
H    -0.378000000     2.226000000    -0.741000000
C    -0.084000000     0.209000000    -1.464000000
H    -0.181000000     0.406000000    -2.529000000
C     0.165000000    -1.087000000    -1.093000000
C     0.273000000    -2.167000000    -2.107000000
O     0.502000000    -1.953000000    -3.291000000
O     0.011000000    -3.352000000    -1.838000000
O    -4.459000000     3.381000000     2.744000000
H    -4.304000000     3.792000000     3.594000000
H    -4.648000000     4.111000000     2.155000000
O    -0.639000000     6.277000000    -3.320000000
H     0.117000000     5.903000000    -3.773000000
H    -1.001000000     5.549000000    -2.816000000
O     1.377000000     5.076000000    -4.794000000
H     1.120000000     4.191000000    -5.053000000
H     2.332000000     5.076000000    -4.856000000
O     1.680000000    -3.704000000    -4.933000000
H     2.386000000    -4.122000000    -4.439000000
H     1.267000000    -3.111000000    -4.306000000
O    -1.602000000    -4.554000000    -3.862000000
H    -1.470000000    -5.502000000    -3.883000000
H    -0.880000000    -4.223000000    -3.327000000
O    -0.662000000     1.179000000     5.040000000
H    -1.566000000     0.866000000     5.057000000
H    -0.733000000     2.102000000     4.797000000
O    -3.776000000     0.953000000     1.790000000
H    -4.618000000     0.660000000     1.440000000
H    -3.884000000     1.896000000     1.915000000
O     3.464000000     5.149000000     0.037000000
H     2.520000000     5.248000000    -0.089000000
H     3.548000000     4.739000000     0.898000000
O     3.767000000    -2.019000000     0.589000000
H     4.596000000    -2.251000000     0.169000000
H     3.098000000    -2.269000000    -0.047000000
O     1.827000000     0.357000000     6.479000000
H     1.903000000    -0.438000000     7.005000000
H     1.060000000     0.206000000     5.926000000
O     3.968000000     0.063000000     2.129000000
H     3.703000000     0.536000000     1.341000000
H     3.928000000    -0.860000000     1.879000000
O    -2.925000000    -1.388000000    -0.488000000
H    -2.118000000    -0.876000000    -0.549000000
H    -3.078000000    -1.482000000     0.453000000
O     1.061000000    -0.434000000    -5.346000000
H     0.742000000    -1.007000000    -4.649000000
H     1.701000000    -0.965000000    -5.819000000
O    -0.650000000     4.464000000     4.853000000
H    -0.892000000     4.788000000     5.721000000
H    -1.225000000     4.937000000     4.251000000
O    -3.583000000     2.249000000    -1.176000000
H    -4.370000000     2.668000000    -0.828000000
H    -3.321000000     1.628000000    -0.497000000
O     0.476000000    -2.697000000    -7.100000000
H     0.888000000    -3.203000000    -6.400000000
H    -0.257000000    -2.253000000    -6.675000000
O    -2.016000000    -1.853000000    -4.222000000
H    -2.264000000    -2.777000000    -4.186000000
H    -1.331000000    -1.763000000    -3.559000000
O    -0.742000000    -2.899000000     4.816000000
H    -0.959000000    -3.331000000     3.990000000
H     0.214000000    -2.843000000     4.813000000
O     0.531000000     7.477000000     3.999000000
H     0.590000000     6.868000000     3.263000000
H    -0.395000000     7.471000000     4.242000000
O     3.127000000     1.840000000     0.068000000
H     2.250000000     1.504000000    -0.114000000
H     3.624000000     1.660000000    -0.730000000
O    -2.451000000     0.213000000    -5.939000000
H    -2.206000000    -0.589000000    -5.477000000
H    -2.177000000     0.919000000    -5.354000000
O     2.092000000     1.549000000     3.548000000
H     2.179000000     0.757000000     3.018000000
H     1.295000000     1.408000000     4.059000000
O     3.951000000    -5.383000000    -3.685000000
H     4.581000000    -4.807000000    -3.251000000
H     3.170000000    -5.342000000    -3.133000000
O     3.726000000     0.499000000    -4.678000000
H     4.316000000     0.442000000    -5.429000000
H     2.885000000     0.761000000    -5.053000000
O    -3.410000000     0.650000000     4.633000000
H    -4.360000000     0.718000000     4.735000000
H    -3.235000000     1.020000000     3.768000000
O     0.164000000    -6.915000000    -2.933000000
H    -0.168000000    -7.356000000    -2.152000000
H     0.941000000    -6.445000000    -2.631000000
O     1.838000000     3.207000000    -2.520000000
H     2.636000000     3.386000000    -3.016000000
H     1.156000000     3.117000000    -3.186000000
O     2.169000000    -2.541000000     4.634000000
H     2.563000000    -3.098000000     3.963000000
H     2.908000000    -2.064000000     5.012000000
O     1.024000000     6.446000000     1.410000000
H     0.953000000     7.196000000     0.819000000
H     0.435000000     5.791000000     1.037000000
O    -1.607000000    -4.115000000     2.554000000
H    -2.081000000    -3.284000000     2.538000000
H    -1.641000000    -4.428000000     1.650000000
O     3.957000000     6.258000000     3.333000000
H     3.485000000     6.872000000     2.770000000
H     3.291000000     5.628000000     3.610000000
O     0.183000000     2.484000000     7.777000000
H     0.732000000     1.907000000     7.246000000
H     0.406000000     2.262000000     8.681000000
O    -1.973000000     2.047000000    -3.717000000
H    -2.286000000     2.857000000    -4.120000000
H    -2.420000000     2.011000000    -2.872000000
O    -3.052000000    -1.653000000     2.192000000
H    -3.892000000    -1.259000000     2.427000000
H    -2.496000000    -0.909000000     1.962000000
O    -3.710000000     4.765000000     4.864000000
H    -4.477000000     5.285000000     5.103000000
H    -3.573000000     4.182000000     5.610000000
O     1.993000000    -5.126000000    -1.853000000
H     2.112000000    -5.094000000    -0.904000000
H     1.423000000    -4.383000000    -2.049000000
O    -2.682000000    -1.644000000     5.910000000
H    -1.889000000    -2.002000000     5.512000000
H    -2.931000000    -0.919000000     5.336000000
O     0.663000000     2.358000000    -5.171000000
H     1.220000000     1.713000000    -5.605000000
H    -0.138000000     1.879000000    -4.957000000
O     4.548000000     1.102000000    -2.105000000
H     5.116000000     1.799000000    -2.433000000
H     4.200000000     0.685000000    -2.893000000
O    -4.511000000    -0.654000000    -3.059000000
H    -3.792000000    -0.889000000    -3.647000000
H    -4.112000000    -0.638000000    -2.189000000
O     2.151000000     4.707000000     4.619000000
H     2.363000000     3.853000000     4.240000000
H     1.215000000     4.657000000     4.813000000
O     0.609000000     4.618000000    -0.682000000
H     1.052000000     3.942000000    -1.194000000
H    -0.287000000     4.625000000    -1.019000000
O     3.931000000    -3.779000000     3.080000000
H     4.577000000    -4.417000000     2.777000000
H     3.660000000    -3.318000000     2.286000000
O    -2.040000000     7.041000000     3.623000000
H    -2.210000000     7.352000000     2.734000000
H    -2.801000000     6.501000000     3.838000000
O    -1.869000000    -4.606000000    -0.636000000
H    -1.124000000    -4.128000000    -0.999000000
H    -1.673000000    -5.526000000    -0.813000000
O    -2.047000000     4.588000000    -1.128000000
H    -2.682000000     5.282000000    -0.950000000
H    -2.576000000     3.794000000    -1.204000000
O     3.943000000     3.227000000     2.151000000
H     3.417000000     2.790000000     2.820000000
H     3.737000000     2.759000000     1.341000000
O     2.044000000    -5.182000000     0.976000000
H     2.495000000    -5.493000000     1.761000000
H     1.114000000    -5.225000000     1.201000000
