158
-3002.28146
C    -1.270000000     0.425000000    -0.628000000
H    -2.240000000     0.636000000    -1.072000000
C    -1.148000000    -0.699000000     0.204000000
H    -2.021000000    -1.335000000     0.324000000
C     0.103000000    -1.018000000     0.679000000
H     0.267000000    -1.884000000     1.351000000
C     1.217000000    -0.170000000     0.545000000
H     2.185000000    -0.312000000     1.018000000
C     1.037000000     0.969000000    -0.212000000
H     1.920000000     1.593000000    -0.316000000
C    -0.181000000     1.292000000    -0.835000000
C    -0.247000000     2.415000000    -1.859000000
O     0.767000000     3.072000000    -2.111000000
O    -1.275000000     2.748000000    -2.328000000
O     2.820000000    -2.973000000    -0.550000000
H     3.628000000    -2.577000000    -0.878000000
H     2.342000000    -3.229000000    -1.339000000
O    -0.151000000    -3.287000000    -1.856000000
H    -0.022000000    -2.657000000    -1.147000000
H    -0.950000000    -3.756000000    -1.617000000
O     4.146000000    -2.277000000     1.645000000
H     4.980000000    -2.745000000     1.692000000
H     3.713000000    -2.637000000     0.871000000
O    -4.048000000    -4.590000000     2.888000000
H    -4.890000000    -4.227000000     3.162000000
H    -3.420000000    -3.887000000     3.052000000
O     0.170000000     3.280000000     1.929000000
H    -0.102000000     2.389000000     2.151000000
H    -0.647000000     3.739000000     1.738000000
O    -6.558000000    -1.129000000     0.838000000
H    -6.066000000    -0.319000000     0.973000000
H    -6.135000000    -1.766000000     1.414000000
O    -0.311000000     5.611000000    -2.175000000
H    -0.790000000     5.681000000    -3.000000000
H     0.071000000     4.733000000    -2.194000000
O     5.257000000    -2.182000000    -1.489000000
H     5.986000000    -2.588000000    -1.958000000
H     5.555000000    -1.291000000    -1.310000000
O    -0.894000000     2.642000000    -6.740000000
H    -0.853000000     2.054000000    -7.493000000
H    -1.748000000     3.068000000    -6.814000000
O    -0.260000000     0.908000000     3.306000000
H    -1.091000000     0.481000000     3.516000000
H     0.408000000     0.272000000     3.560000000
O    -4.983000000    -2.409000000    -3.045000000
H    -5.670000000    -3.071000000    -3.123000000
H    -4.243000000    -2.774000000    -3.530000000
O    -2.115000000    -4.908000000    -1.231000000
H    -1.989000000    -5.501000000    -1.972000000
H    -2.866000000    -5.269000000    -0.760000000
O    -5.812000000     4.648000000    -2.596000000
H    -5.205000000     3.908000000    -2.562000000
H    -6.085000000     4.775000000    -1.688000000
O     2.581000000    -4.223000000     5.387000000
H     2.025000000    -4.971000000     5.171000000
H     3.453000000    -4.599000000     5.505000000
O     1.617000000     4.698000000     0.259000000
H     1.331000000     4.140000000     0.983000000
H     1.398000000     4.199000000    -0.528000000
O     2.101000000     0.519000000    -5.054000000
H     2.363000000    -0.375000000    -5.274000000
H     1.179000000     0.445000000    -4.810000000
O    -1.459000000     4.894000000    -4.390000000
H    -1.441000000     4.080000000    -3.886000000
H    -2.389000000     5.052000000    -4.556000000
O    -2.456000000     1.929000000     1.729000000
H    -1.840000000     1.223000000     1.537000000
H    -2.864000000     1.673000000     2.557000000
O     1.503000000    -1.846000000     3.617000000
H     0.594000000    -1.980000000     3.348000000
H     1.958000000    -2.636000000     3.324000000
O     2.371000000     7.473000000    -4.508000000
H     1.717000000     7.358000000    -5.198000000
H     2.697000000     6.590000000    -4.337000000
O     4.067000000     3.842000000     1.301000000
H     3.322000000     4.352000000     0.986000000
H     4.171000000     3.145000000     0.653000000
O    -0.936000000     1.199000000    -4.634000000
H    -1.228000000     1.726000000    -3.891000000
H    -0.741000000     1.838000000    -5.320000000
O     2.398000000    -5.744000000    -2.149000000
H     1.569000000    -5.427000000    -1.791000000
H     2.933000000    -5.937000000    -1.379000000
O     4.286000000    -1.662000000     6.229000000
H     4.312000000    -2.594000000     6.011000000
H     3.617000000    -1.299000000     5.648000000
O     3.712000000    -0.144000000     3.494000000
H     4.064000000    -0.644000000     2.757000000
H     2.787000000    -0.386000000     3.528000000
O    -2.783000000    -0.107000000     3.836000000
H    -3.472000000    -0.211000000     4.493000000
H    -2.565000000    -1.001000000     3.574000000
O     2.565000000     4.808000000    -3.767000000
H     2.070000000     4.093000000    -3.369000000
H     3.103000000     4.384000000    -4.436000000
O    -0.245000000    -5.394000000     3.295000000
H    -0.398000000    -6.199000000     2.801000000
H     0.378000000    -4.901000000     2.762000000
O    -6.496000000     1.265000000    -3.460000000
H    -6.641000000     0.382000000    -3.120000000
H    -5.548000000     1.323000000    -3.579000000
O     0.648000000     8.221000000    -2.427000000
H     1.440000000     8.286000000    -2.960000000
H     0.518000000     7.281000000    -2.304000000
O    -1.714000000    -1.215000000    -5.784000000
H    -0.989000000    -1.829000000    -5.674000000
H    -1.424000000    -0.418000000    -5.340000000
O     3.040000000     1.969000000    -2.904000000
H     2.812000000     1.477000000    -3.693000000
H     2.200000000     2.279000000    -2.564000000
O     5.546000000     1.361000000     4.686000000
H     4.951000000     0.870000000     4.119000000
H     5.006000000     1.617000000     5.434000000
O     4.428000000     5.238000000    -1.864000000
H     4.193000000     4.547000000    -1.244000000
H     3.614000000     5.426000000    -2.332000000
O    -1.151000000     6.824000000     0.231000000
H    -0.471000000     6.623000000    -0.413000000
H    -1.679000000     6.028000000     0.278000000
O     4.602000000     2.224000000    -0.775000000
H     4.926000000     1.325000000    -0.724000000
H     4.301000000     2.320000000    -1.678000000
O    -4.046000000     0.983000000    -5.432000000
H    -3.857000000     1.737000000    -5.991000000
H    -3.201000000     0.545000000    -5.329000000
O    -4.101000000     5.364000000    -4.727000000
H    -4.593000000     6.017000000    -5.224000000
H    -4.548000000     5.319000000    -3.881000000
O     1.825000000    -4.607000000     1.899000000
H     2.421000000    -5.302000000     2.179000000
H     2.071000000    -4.431000000     0.991000000
O    -3.474000000    -4.157000000     5.972000000
H    -2.641000000    -4.135000000     5.502000000
H    -3.247000000    -3.922000000     6.872000000
O     3.215000000     3.016000000    -6.058000000
H     2.782000000     2.198000000    -5.813000000
H     3.992000000     2.739000000    -6.544000000
O     0.033000000    -2.997000000     6.269000000
H     0.871000000    -2.990000000     5.807000000
H    -0.031000000    -3.880000000     6.635000000
O    -4.922000000     1.241000000     0.784000000
H    -4.064000000     1.369000000     1.189000000
H    -5.487000000     1.883000000     1.213000000
O    -3.971000000     2.999000000    -1.918000000
H    -3.019000000     3.084000000    -1.858000000
H    -4.151000000     2.107000000    -1.619000000
O    -4.809000000     0.053000000    -1.701000000
H    -4.823000000     0.122000000    -0.746000000
H    -4.406000000    -0.798000000    -1.874000000
O    -2.774000000     4.451000000     0.494000000
H    -3.108000000     4.339000000    -0.396000000
H    -2.517000000     3.570000000     0.767000000
O    -1.257000000    -3.014000000     3.854000000
H    -0.981000000    -3.920000000     3.719000000
H    -1.129000000    -2.861000000     4.790000000
O     0.139000000    -6.268000000    -0.497000000
H    -0.661000000    -5.763000000    -0.644000000
H    -0.054000000    -6.805000000     0.271000000
