158
-3040.22818
C     0.711000000    -1.294000000     0.046000000
H     1.074000000    -2.256000000     0.399000000
C     0.604000000    -0.409000000     1.088000000
H     1.090000000    -0.556000000     2.049000000
C    -0.173000000     0.742000000     0.952000000
H    -0.254000000     1.457000000     1.803000000
C    -0.789000000     1.011000000    -0.259000000
H    -1.349000000     1.936000000    -0.372000000
C    -0.526000000     0.179000000    -1.409000000
H    -0.972000000     0.445000000    -2.364000000
C     0.206000000    -1.006000000    -1.214000000
C     0.302000000    -1.955000000    -2.370000000
O     0.194000000    -1.527000000    -3.452000000
O     0.462000000    -3.159000000    -2.122000000
O    -3.029000000     3.585000000     1.594000000
H    -2.113000000     3.745000000     1.367000000
H    -3.407000000     4.458000000     1.696000000
O     0.134000000     5.289000000    -2.692000000
H    -0.652000000     4.784000000    -2.903000000
H     0.250000000     5.875000000    -3.440000000
O    -4.448000000    -0.811000000     5.256000000
H    -4.384000000    -1.760000000     5.152000000
H    -4.315000000    -0.464000000     4.374000000
O     1.383000000    -2.511000000    -5.722000000
H     1.718000000    -3.389000000    -5.904000000
H     0.926000000    -2.598000000    -4.886000000
O    -6.045000000    -0.673000000     0.793000000
H    -6.047000000    -0.015000000     1.489000000
H    -5.354000000    -0.387000000     0.196000000
O     0.017000000    -4.575000000    -4.443000000
H    -0.181000000    -5.499000000    -4.291000000
H     0.152000000    -4.212000000    -3.568000000
O    -1.160000000     1.404000000     4.396000000
H    -0.473000000     0.800000000     4.112000000
H    -1.973000000     0.914000000     4.277000000
O    -4.121000000     0.993000000    -0.719000000
H    -3.851000000     1.901000000    -0.579000000
H    -3.463000000     0.474000000    -0.259000000
O     3.912000000    -1.341000000     0.961000000
H     3.726000000    -2.006000000     0.298000000
H     4.009000000    -1.834000000     1.775000000
O     3.401000000    -2.486000000     4.285000000
H     3.489000000    -2.805000000     5.183000000
H     2.775000000    -1.765000000     4.347000000
O     3.502000000    -5.051000000     1.619000000
H     2.794000000    -5.556000000     1.218000000
H     3.850000000    -5.626000000     2.300000000
O    -4.011000000     0.410000000    -3.355000000
H    -4.047000000     0.277000000    -2.407000000
H    -4.271000000     1.323000000    -3.478000000
O     1.917000000     0.542000000    -4.063000000
H     1.391000000    -0.253000000    -3.973000000
H     2.711000000     0.254000000    -4.514000000
O    -2.156000000     3.633000000     5.552000000
H    -1.875000000     2.856000000     5.069000000
H    -3.109000000     3.638000000     5.466000000
O    -2.291000000    -3.531000000    -5.351000000
H    -1.370000000    -3.640000000    -5.116000000
H    -2.407000000    -2.585000000    -5.434000000
O    -1.850000000    -0.371000000    -4.753000000
H    -2.566000000    -0.372000000    -4.117000000
H    -1.076000000    -0.612000000    -4.244000000
O    -0.231000000    -2.522000000     4.755000000
H    -0.875000000    -2.003000000     4.272000000
H    -0.075000000    -3.286000000     4.200000000
O     0.582000000    -7.673000000    -0.677000000
H     1.528000000    -7.782000000    -0.575000000
H     0.427000000    -6.747000000    -0.489000000
O     5.507000000    -3.401000000     2.739000000
H     4.968000000    -3.796000000     2.054000000
H     4.879000000    -3.100000000     3.395000000
O    -5.400000000     4.475000000    -0.314000000
H    -4.905000000     4.409000000     0.502000000
H    -5.953000000     5.247000000    -0.197000000
O     3.600000000    -0.620000000    -5.660000000
H     2.890000000    -1.261000000    -5.683000000
H     4.396000000    -1.145000000    -5.575000000
O    -0.933000000     6.068000000     4.956000000
H    -0.495000000     5.938000000     4.115000000
H    -1.204000000     5.190000000     5.223000000
O     5.177000000     5.052000000     0.362000000
H     4.400000000     4.790000000     0.855000000
H     5.912000000     4.720000000     0.879000000
O     2.125000000     1.418000000    -1.632000000
H     2.202000000     1.186000000    -2.557000000
H     1.211000000     1.235000000    -1.414000000
O     1.749000000    -0.020000000     5.180000000
H     1.874000000     0.618000000     5.883000000
H     1.395000000    -0.794000000     5.619000000
O     3.531000000    -4.963000000    -3.202000000
H     3.466000000    -5.253000000    -4.112000000
H     3.366000000    -5.752000000    -2.687000000
O    -3.268000000     0.947000000     2.326000000
H    -4.173000000     1.239000000     2.436000000
H    -2.760000000     1.757000000     2.275000000
O     3.793000000    -2.856000000    -1.570000000
H     4.018000000    -3.528000000    -2.214000000
H     3.025000000    -2.420000000    -1.938000000
O    -0.530000000    -7.295000000    -3.647000000
H     0.348000000    -7.630000000    -3.465000000
H    -1.080000000    -7.684000000    -2.967000000
O     2.502000000     4.031000000    -2.208000000
H     2.298000000     3.125000000    -1.975000000
H     1.650000000     4.468000000    -2.239000000
O     4.943000000     3.665000000     3.046000000
H     4.222000000     3.474000000     3.646000000
H     5.610000000     3.012000000     3.257000000
O     0.554000000     2.213000000     7.133000000
H     0.175000000     2.054000000     6.268000000
H     0.072000000     2.967000000     7.472000000
O     2.036000000    -4.702000000     4.776000000
H     2.331000000    -3.934000000     4.286000000
H     2.796000000    -4.959000000     5.298000000
O    -2.039000000    -3.369000000     0.824000000
H    -2.612000000    -4.041000000     1.193000000
H    -1.955000000    -3.607000000    -0.100000000
O    -1.976000000     3.757000000    -3.554000000
H    -1.610000000     3.828000000    -4.435000000
H    -2.908000000     3.587000000    -3.695000000
O    -4.211000000    -2.096000000    -1.343000000
H    -4.418000000    -2.527000000    -2.173000000
H    -3.742000000    -2.760000000    -0.838000000
O     1.682000000    -2.714000000    -8.425000000
H     0.879000000    -2.570000000    -8.926000000
H     1.505000000    -2.322000000    -7.570000000
O     1.691000000    -5.066000000    -0.536000000
H     2.495000000    -4.791000000    -0.977000000
H     1.003000000    -4.539000000    -0.941000000
O    -1.989000000    -1.359000000     2.833000000
H    -1.652000000    -1.886000000     2.109000000
H    -2.421000000    -0.618000000     2.410000000
O    -0.210000000     2.325000000    -5.748000000
H    -0.714000000     1.582000000    -5.418000000
H     0.291000000     2.631000000    -4.992000000
O     3.701000000     1.618000000     0.677000000
H     3.262000000     1.477000000    -0.162000000
H     3.753000000     0.746000000     1.069000000
O     3.209000000     3.409000000     5.082000000
H     3.326000000     4.298000000     5.419000000
H     3.276000000     2.849000000     5.856000000
O     0.589000000     5.487000000     2.526000000
H     1.100000000     4.679000000     2.576000000
H     0.252000000     5.502000000     1.629000000
O    -1.930000000    -4.379000000    -1.751000000
H    -1.043000000    -4.181000000    -2.050000000
H    -2.364000000    -4.753000000    -2.518000000
O    -0.793000000     6.001000000     0.053000000
H    -0.495000000     5.665000000    -0.792000000
H    -0.479000000     6.905000000     0.076000000
O     1.979000000     3.337000000     2.112000000
H     2.373000000     3.029000000     2.927000000
H     2.453000000     2.870000000     1.424000000
O    -2.754000000     0.351000000    -7.103000000
H    -2.102000000     0.060000000    -6.466000000
H    -3.551000000     0.480000000    -6.588000000
O     0.531000000    -4.018000000     2.062000000
H     1.252000000    -4.147000000     1.446000000
H    -0.229000000    -3.840000000     1.508000000
