158
-3031.81415
C     0.330000000    -1.472000000    -0.224000000
H     0.682000000    -2.499000000    -0.283000000
C     0.684000000    -0.679000000     0.860000000
H     1.205000000    -1.245000000     1.628000000
C     0.371000000     0.666000000     0.971000000
H     0.705000000     1.195000000     1.877000000
C    -0.322000000     1.255000000    -0.055000000
H    -0.478000000     2.317000000     0.118000000
C    -0.759000000     0.488000000    -1.098000000
H    -1.438000000     1.019000000    -1.760000000
C    -0.433000000    -0.893000000    -1.251000000
C    -1.001000000    -1.730000000    -2.366000000
O    -1.570000000    -1.139000000    -3.293000000
O    -0.768000000    -2.917000000    -2.361000000
O    -1.128000000     5.175000000     3.100000000
H    -1.862000000     5.283000000     2.495000000
H    -1.156000000     5.957000000     3.652000000
O     3.286000000    -5.020000000     1.677000000
H     3.205000000    -5.774000000     2.261000000
H     2.506000000    -5.061000000     1.123000000
O    -0.835000000    -0.147000000     5.758000000
H    -1.088000000    -0.983000000     6.148000000
H    -1.290000000    -0.128000000     4.915000000
O    -4.056000000    -2.596000000    -7.124000000
H    -4.089000000    -1.837000000    -6.542000000
H    -4.257000000    -2.242000000    -7.991000000
O    -0.542000000    -2.250000000    -6.645000000
H    -0.194000000    -1.372000000    -6.490000000
H    -0.835000000    -2.548000000    -5.783000000
O     2.705000000    -2.123000000     6.327000000
H     2.971000000    -2.609000000     5.546000000
H     2.106000000    -2.714000000     6.784000000
O    -2.511000000    -5.070000000    -4.086000000
H    -1.992000000    -5.760000000    -3.672000000
H    -1.983000000    -4.279000000    -3.984000000
O    -2.129000000     5.251000000     0.231000000
H    -2.965000000     4.784000000     0.231000000
H    -1.798000000     5.148000000    -0.662000000
O     1.603000000    -3.959000000    -2.829000000
H     2.030000000    -3.415000000    -3.491000000
H     0.743000000    -3.556000000    -2.706000000
O    -3.533000000    -0.301000000     3.547000000
H    -4.447000000    -0.076000000     3.721000000
H    -3.047000000     0.500000000     3.742000000
O     2.297000000     3.371000000     1.661000000
H     1.617000000     3.395000000     0.989000000
H     2.988000000     2.826000000     1.285000000
O     3.832000000     1.398000000     0.787000000
H     4.135000000     0.645000000     1.295000000
H     4.378000000     1.392000000     0.001000000
O     3.687000000     3.785000000     6.494000000
H     3.180000000     3.051000000     6.147000000
H     3.106000000     4.541000000     6.405000000
O    -4.688000000     3.957000000     0.537000000
H    -5.540000000     4.132000000     0.935000000
H    -4.491000000     3.053000000     0.781000000
O    -1.456000000     2.638000000     4.230000000
H    -1.371000000     3.538000000     3.917000000
H    -2.399000000     2.479000000     4.253000000
O    -4.026000000    -0.137000000    -2.682000000
H    -4.423000000    -0.981000000    -2.894000000
H    -3.109000000    -0.232000000    -2.940000000
O    -4.306000000     1.136000000     0.143000000
H    -3.745000000     1.004000000    -0.621000000
H    -4.946000000     0.426000000     0.096000000
O     3.000000000    -2.427000000    -4.567000000
H     2.707000000    -2.511000000    -5.474000000
H     3.904000000    -2.741000000    -4.576000000
O     3.846000000     0.113000000    -3.087000000
H     3.047000000     0.537000000    -3.401000000
H     3.588000000    -0.795000000    -2.928000000
O     4.216000000     4.770000000     2.969000000
H     4.243000000     5.443000000     2.289000000
H     3.526000000     4.170000000     2.685000000
O     2.292000000     2.062000000    -1.333000000
H     2.913000000     1.659000000    -0.726000000
H     1.435000000     1.750000000    -1.042000000
O    -1.113000000    -3.795000000     2.390000000
H    -1.579000000    -3.043000000     2.024000000
H    -1.604000000    -4.020000000     3.180000000
O     1.532000000    -6.066000000    -4.914000000
H     0.690000000    -5.734000000    -5.227000000
H     1.730000000    -5.530000000    -4.146000000
O    -4.608000000    -2.022000000     0.147000000
H    -3.721000000    -2.080000000     0.503000000
H    -4.586000000    -2.568000000    -0.639000000
O    -0.803000000    -6.879000000    -3.188000000
H     0.108000000    -7.167000000    -3.129000000
H    -1.179000000    -7.416000000    -3.885000000
O    -1.355000000     5.109000000    -2.417000000
H    -1.389000000     5.788000000    -3.091000000
H    -1.569000000     4.300000000    -2.882000000
O     4.287000000     0.617000000     6.584000000
H     3.437000000     0.326000000     6.914000000
H     4.081000000     1.083000000     5.773000000
O    -5.908000000    -2.117000000    -3.028000000
H    -5.422000000    -2.879000000    -2.714000000
H    -6.649000000    -2.487000000    -3.509000000
O     1.626000000     0.248000000     6.843000000
H     1.950000000    -0.584000000     6.500000000
H     0.780000000     0.371000000     6.414000000
O     1.582000000     1.607000000    -4.602000000
H     1.829000000     2.382000000    -5.107000000
H     1.348000000     1.948000000    -3.739000000
O    -3.069000000     3.448000000    -5.452000000
H    -2.611000000     2.659000000    -5.742000000
H    -3.735000000     3.129000000    -4.844000000
O    -4.897000000     2.369000000    -3.576000000
H    -4.549000000     3.034000000    -2.983000000
H    -4.758000000     1.541000000    -3.116000000
O     4.950000000    -1.318000000     1.479000000
H     4.538000000    -2.080000000     1.071000000
H     4.321000000    -1.033000000     2.143000000
O     2.914000000     5.754000000    -1.127000000
H     3.362000000     6.147000000    -0.378000000
H     2.202000000     5.244000000    -0.739000000
O    -2.886000000    -5.766000000     1.094000000
H    -3.482000000    -6.378000000     0.662000000
H    -2.526000000    -5.239000000     0.380000000
O     2.085000000     4.148000000    -3.330000000
H     2.393000000     3.543000000    -2.655000000
H     2.292000000     5.017000000    -2.985000000
O     4.994000000    -3.758000000     0.067000000
H     4.612000000    -4.239000000     0.800000000
H     4.849000000    -4.323000000    -0.692000000
O     0.157000000     0.331000000    -6.640000000
H    -0.082000000     0.790000000    -5.835000000
H     1.049000000     0.623000000    -6.828000000
O     1.408000000    -3.145000000     3.699000000
H     1.904000000    -3.937000000     3.491000000
H     0.565000000    -3.269000000     3.263000000
O    -1.767000000     0.879000000    -4.851000000
H    -1.643000000     0.021000000    -4.445000000
H    -2.538000000     0.771000000    -5.408000000
O    -2.215000000    -1.516000000     1.500000000
H    -1.646000000    -0.832000000     1.147000000
H    -2.730000000    -1.075000000     2.175000000
O     0.731000000    -5.044000000     0.784000000
H     0.413000000    -5.089000000    -0.117000000
H    -0.010000000    -4.701000000     1.284000000
O     1.575000000     6.021000000     2.951000000
H     0.740000000     5.673000000     2.637000000
H     2.120000000     5.246000000     3.089000000
O    -1.510000000    -5.017000000    -1.095000000
H    -1.286000000    -4.176000000    -1.494000000
H    -1.382000000    -5.656000000    -1.796000000
O     1.887000000     2.688000000     4.263000000
H     1.892000000     3.055000000     3.379000000
H     0.972000000     2.454000000     4.420000000
O     0.523000000     4.619000000    -0.494000000
H    -0.186000000     4.697000000     0.143000000
H     0.114000000     4.826000000    -1.335000000
O     3.209000000    -0.602000000     3.618000000
H     2.344000000    -0.876000000     3.925000000
H     3.819000000    -1.185000000     4.070000000
O    -3.971000000     0.212000000    -6.436000000
H    -3.857000000     0.697000000    -7.253000000
H    -4.912000000     0.249000000    -6.265000000
