158
-3029.51627
C     0.476000000    -1.242000000    -0.624000000
H     0.591000000    -2.257000000    -0.998000000
C     0.712000000    -0.829000000     0.653000000
H     1.187000000    -1.577000000     1.284000000
C     0.378000000     0.417000000     1.119000000
H     0.467000000     0.655000000     2.175000000
C    -0.259000000     1.264000000     0.307000000
H    -0.544000000     2.212000000     0.756000000
C    -0.625000000     0.901000000    -0.999000000
H    -1.144000000     1.594000000    -1.657000000
C    -0.262000000    -0.400000000    -1.479000000
C    -0.795000000    -0.903000000    -2.864000000
O    -1.217000000    -0.133000000    -3.640000000
O    -0.626000000    -2.057000000    -3.171000000
O     0.810000000    -1.378000000     4.435000000
H    -0.127000000    -1.318000000     4.248000000
H     0.855000000    -1.726000000     5.325000000
O    -2.838000000     0.147000000    -5.657000000
H    -2.188000000     0.145000000    -4.954000000
H    -2.715000000     0.989000000    -6.094000000
O    -0.415000000     2.641000000     3.960000000
H    -0.557000000     3.195000000     3.193000000
H     0.401000000     2.176000000     3.772000000
O    -0.452000000    -0.905000000     6.968000000
H    -1.089000000    -1.620000000     6.964000000
H    -0.955000000    -0.134000000     6.706000000
O     0.389000000     0.625000000    -6.119000000
H     0.743000000     1.490000000    -6.325000000
H     0.105000000     0.693000000    -5.208000000
O    -2.699000000    -2.964000000    -4.697000000
H    -1.923000000    -2.682000000    -4.212000000
H    -3.036000000    -3.707000000    -4.196000000
O    -3.689000000     2.975000000    -3.023000000
H    -3.939000000     2.051000000    -3.017000000
H    -2.753000000     2.970000000    -3.225000000
O    -0.854000000     6.229000000     3.026000000
H    -1.274000000     5.575000000     3.584000000
H    -1.319000000     7.043000000     3.219000000
O     1.837000000    -2.678000000    -3.397000000
H     2.381000000    -1.923000000    -3.176000000
H     0.948000000    -2.410000000    -3.163000000
O    -3.199000000     0.787000000     2.499000000
H    -3.297000000     1.438000000     3.194000000
H    -3.646000000     1.172000000     1.745000000
O     5.799000000     2.829000000     1.712000000
H     4.972000000     2.435000000     1.435000000
H     6.400000000     2.088000000     1.797000000
O    -0.647000000    -4.720000000    -8.133000000
H    -0.310000000    -3.975000000    -7.635000000
H     0.127000000    -5.248000000    -8.328000000
O    -3.405000000    -2.193000000    -7.212000000
H    -3.257000000    -2.661000000    -6.391000000
H    -3.094000000    -1.304000000    -7.040000000
O    -4.365000000     5.613000000     1.867000000
H    -5.018000000     5.461000000     1.185000000
H    -3.526000000     5.446000000     1.437000000
O    -0.577000000     2.391000000     6.712000000
H    -0.460000000     2.803000000     5.856000000
H    -1.425000000     1.953000000     6.653000000
O    -0.225000000    -1.729000000    -7.481000000
H     0.524000000    -1.156000000    -7.316000000
H    -0.932000000    -1.358000000    -6.953000000
O    -3.672000000    -5.339000000    -0.962000000
H    -2.810000000    -4.970000000    -1.157000000
H    -3.564000000    -6.281000000    -1.093000000
O    -4.295000000     0.039000000    -2.383000000
H    -4.257000000    -0.702000000    -1.777000000
H    -3.506000000    -0.048000000    -2.917000000
O    -2.368000000    -1.650000000     1.180000000
H    -1.502000000    -1.307000000     0.959000000
H    -2.917000000    -0.872000000     1.275000000
O    -4.976000000    -0.481000000     4.636000000
H    -5.523000000     0.273000000     4.413000000
H    -4.875000000    -0.955000000     3.811000000
O     4.235000000    -1.273000000    -2.954000000
H     4.641000000    -1.282000000    -3.820000000
H     4.599000000    -2.039000000    -2.510000000
O     3.970000000     1.307000000    -1.804000000
H     3.183000000     1.787000000    -2.063000000
H     3.847000000     0.431000000    -2.168000000
O     3.426000000     1.346000000     0.924000000
H     2.583000000     1.529000000     1.339000000
H     3.215000000     1.218000000    -0.001000000
O    -5.321000000    -0.648000000    -4.973000000
H    -4.508000000    -0.312000000    -5.350000000
H    -5.072000000    -0.956000000    -4.102000000
O    -0.386000000    -4.132000000     3.867000000
H    -0.792000000    -4.565000000     3.117000000
H    -0.914000000    -3.345000000     4.004000000
O     2.369000000    -5.223000000    -4.013000000
H     2.056000000    -4.321000000    -3.951000000
H     2.591000000    -5.462000000    -3.113000000
O    -0.607000000    -6.104000000    -3.902000000
H    -1.170000000    -6.255000000    -4.662000000
H     0.282000000    -6.229000000    -4.234000000
O     5.016000000     0.998000000     4.069000000
H     5.037000000     0.253000000     3.469000000
H     4.087000000     1.213000000     4.152000000
O    -4.177000000    -2.253000000    -1.006000000
H    -4.294000000    -3.139000000    -1.348000000
H    -3.751000000    -2.378000000    -0.158000000
O     2.069000000     3.268000000    -3.110000000
H     2.109000000     4.126000000    -3.531000000
H     1.493000000     2.751000000    -3.674000000
O     3.478000000    -1.740000000     3.426000000
H     2.555000000    -1.842000000     3.659000000
H     3.875000000    -2.583000000     3.644000000
O     3.694000000    -5.482000000    -1.206000000
H     3.247000000    -5.413000000    -0.363000000
H     4.435000000    -6.064000000    -1.037000000
O     3.261000000    -2.020000000    -5.702000000
H     2.740000000    -2.296000000    -4.947000000
H     3.942000000    -2.688000000    -5.778000000
O    -5.023000000     5.489000000    -2.648000000
H    -5.451000000     5.515000000    -1.793000000
H    -4.581000000     4.640000000    -2.670000000
O     5.524000000    -0.695000000     1.646000000
H     4.966000000    -1.333000000     2.090000000
H     4.914000000    -0.144000000     1.156000000
O    -0.812000000    -4.333000000     1.126000000
H    -0.536000000    -4.763000000     0.317000000
H    -0.577000000    -3.414000000     1.002000000
O     2.682000000     5.648000000    -1.362000000
H     2.105000000     4.896000000    -1.500000000
H     3.389000000     5.309000000    -0.813000000
O     5.336000000    -3.757000000    -2.711000000
H     4.701000000    -4.300000000    -2.244000000
H     6.018000000    -4.369000000    -2.987000000
O    -0.746000000     2.504000000    -4.179000000
H    -0.849000000     1.579000000    -3.955000000
H    -1.121000000     2.582000000    -5.056000000
O    -2.091000000    -1.968000000     4.292000000
H    -2.330000000    -1.706000000     3.403000000
H    -2.551000000    -1.347000000     4.857000000
O     2.990000000    -5.994000000     1.510000000
H     2.608000000    -5.457000000     2.204000000
H     2.957000000    -6.887000000     1.852000000
O    -2.783000000     0.728000000     6.771000000
H    -2.893000000    -0.163000000     7.103000000
H    -3.630000000     1.147000000     6.925000000
O    -1.106000000    -4.248000000    -1.788000000
H    -0.933000000    -3.394000000    -2.186000000
H    -0.600000000    -4.865000000    -2.316000000
O     2.053000000     2.516000000     7.611000000
H     2.077000000     1.688000000     8.092000000
H     1.127000000     2.650000000     7.412000000
O    -4.617000000     1.816000000     0.591000000
H    -5.242000000     1.354000000     0.031000000
H    -4.093000000     2.339000000    -0.016000000
O    -1.787000000     5.327000000     0.406000000
H    -1.268000000     5.864000000     1.004000000
H    -1.859000000     5.856000000    -0.389000000
O     2.267000000     1.118000000     4.811000000
H     1.863000000     0.312000000     4.491000000
H     2.219000000     1.048000000     5.765000000
O    -2.378000000     2.791000000    -6.661000000
H    -1.911000000     3.214000000    -7.382000000
H    -3.185000000     3.297000000    -6.569000000
