158
-3051.73775
C    -0.810000000    -1.135000000     0.427000000
H    -1.288000000    -2.019000000     0.841000000
C     0.416000000    -0.739000000     0.960000000
H     0.876000000    -1.253000000     1.800000000
C     1.099000000     0.406000000     0.482000000
H     2.056000000     0.833000000     0.848000000
C     0.424000000     1.133000000    -0.533000000
H     0.938000000     1.956000000    -1.024000000
C    -0.786000000     0.700000000    -1.089000000
H    -1.264000000     1.252000000    -1.895000000
C    -1.435000000    -0.406000000    -0.543000000
C    -2.764000000    -0.836000000    -1.121000000
O    -3.237000000    -0.144000000    -2.020000000
O    -3.002000000    -2.018000000    -1.086000000
O    -0.136000000    -4.604000000     1.792000000
H    -0.030000000    -4.314000000     2.698000000
H     0.750000000    -4.587000000     1.430000000
O     8.275000000     2.140000000    -1.134000000
H     7.549000000     1.838000000    -0.586000000
H     8.057000000     1.830000000    -2.012000000
O    -4.316000000    -1.738000000     2.093000000
H    -4.318000000    -2.054000000     1.189000000
H    -4.742000000    -0.882000000     2.048000000
O     6.124000000     4.457000000    -0.381000000
H     5.924000000     4.956000000    -1.173000000
H     6.956000000     4.026000000    -0.573000000
O    -5.458000000     1.640000000    -5.058000000
H    -4.859000000     2.137000000    -4.501000000
H    -5.009000000     0.808000000    -5.209000000
O     1.336000000     4.936000000    -0.203000000
H     1.956000000     4.275000000     0.107000000
H     0.476000000     4.541000000    -0.065000000
O    -2.681000000     0.785000000    -6.896000000
H    -2.017000000     0.414000000    -7.478000000
H    -2.508000000     0.378000000    -6.046000000
O    -5.581000000    -2.327000000    -1.616000000
H    -4.630000000    -2.319000000    -1.505000000
H    -5.804000000    -3.254000000    -1.701000000
O    -4.517000000    -3.388000000    -4.638000000
H    -4.751000000    -4.316000000    -4.641000000
H    -3.786000000    -3.327000000    -4.023000000
O    -6.573000000    -4.570000000     1.191000000
H    -6.870000000    -4.930000000     0.355000000
H    -6.593000000    -3.621000000     1.063000000
O    -2.124000000    -3.077000000    -3.346000000
H    -1.240000000    -3.442000000    -3.400000000
H    -2.173000000    -2.696000000    -2.470000000
O    -3.488000000     4.615000000    -0.474000000
H    -2.749000000     4.370000000     0.083000000
H    -4.013000000     5.202000000     0.069000000
O     2.539000000     3.067000000    -4.134000000
H     2.269000000     3.810000000    -3.594000000
H     1.726000000     2.596000000    -4.316000000
O     4.346000000     1.545000000    -2.377000000
H     4.823000000     1.685000000    -1.559000000
H     4.081000000     2.422000000    -2.653000000
O     6.015000000     0.993000000    -0.084000000
H     5.778000000     1.155000000     0.829000000
H     5.905000000     0.049000000    -0.195000000
O     4.783000000     1.416000000     2.193000000
H     4.076000000     1.007000000     2.691000000
H     5.330000000     1.839000000     2.855000000
O     6.452000000     2.789000000     3.740000000
H     7.387000000     2.841000000     3.542000000
H     6.088000000     3.607000000     3.403000000
O     5.332000000    -2.128000000     0.089000000
H     4.389000000    -2.294000000     0.069000000
H     5.682000000    -2.651000000    -0.633000000
O     0.625000000     0.526000000    -4.135000000
H     1.055000000     0.071000000    -3.411000000
H     0.610000000    -0.116000000    -4.845000000
O    -7.978000000    -0.919000000    -1.237000000
H    -7.384000000    -1.652000000    -1.401000000
H    -7.565000000    -0.174000000    -1.673000000
O    -4.692000000     2.138000000    -1.569000000
H    -4.044000000     2.785000000    -1.289000000
H    -4.182000000     1.344000000    -1.729000000
O    -1.032000000     3.585000000     0.557000000
H    -1.724000000     2.931000000     0.455000000
H    -0.655000000     3.402000000     1.418000000
O     2.803000000    -0.803000000    -2.750000000
H     3.408000000    -0.062000000    -2.779000000
H     2.858000000    -1.191000000    -3.623000000
O     2.656000000    -2.601000000    -0.643000000
H     1.905000000    -3.014000000    -1.068000000
H     2.755000000    -1.763000000    -1.093000000
O     3.682000000     4.591000000     5.600000000
H     2.988000000     4.512000000     6.254000000
H     3.218000000     4.680000000     4.767000000
O     1.827000000    -2.336000000     6.068000000
H     2.650000000    -2.805000000     5.928000000
H     1.887000000    -2.011000000     6.967000000
O    -2.717000000     3.934000000    -4.799000000
H    -3.260000000     4.472000000    -4.223000000
H    -2.638000000     4.448000000    -5.603000000
O    -7.000000000     1.271000000    -2.621000000
H    -6.968000000     1.209000000    -3.576000000
H    -6.111000000     1.522000000    -2.368000000
O    -4.273000000    -6.427000000     2.329000000
H    -5.026000000    -6.040000000     2.774000000
H    -3.938000000    -5.725000000     1.771000000
O    -3.401000000    -5.686000000    -2.324000000
H    -3.071000000    -4.802000000    -2.483000000
H    -2.662000000    -6.152000000    -1.933000000
O     5.524000000     5.172000000     2.556000000
H     5.854000000     5.650000000     1.795000000
H     4.602000000     5.421000000     2.614000000
O     2.947000000     0.457000000     4.125000000
H     3.004000000    -0.340000000     4.651000000
H     2.810000000     1.157000000     4.763000000
O    -3.432000000     2.139000000     1.291000000
H    -3.855000000     2.468000000     2.084000000
H    -4.041000000     1.487000000     0.946000000
O    -2.180000000    -0.514000000     3.411000000
H    -2.824000000    -1.153000000     3.107000000
H    -1.363000000    -0.776000000     2.987000000
O    -0.195000000     2.723000000    -5.085000000
H    -0.124000000     1.816000000    -4.787000000
H    -1.134000000     2.907000000    -5.071000000
O     3.442000000     3.496000000     0.678000000
H     4.293000000     3.699000000     0.288000000
H     3.576000000     2.659000000     1.121000000
O    -4.263000000    -0.813000000    -4.683000000
H    -4.376000000    -1.738000000    -4.901000000
H    -4.085000000    -0.809000000    -3.743000000
O     2.874000000     6.287000000     2.563000000
H     2.376000000     6.012000000     1.793000000
H     2.329000000     6.027000000     3.306000000
O     2.662000000    -4.856000000     1.459000000
H     3.226000000    -4.501000000     2.146000000
H     2.774000000    -4.253000000     0.723000000
O     2.769000000     5.425000000    -2.450000000
H     2.093000000     5.815000000    -3.004000000
H     2.355000000     5.339000000    -1.591000000
O    -2.763000000    -4.670000000     0.745000000
H    -2.827000000    -4.005000000     0.060000000
H    -1.881000000    -4.561000000     1.103000000
O    -0.120000000    -3.186000000     4.123000000
H     0.528000000    -2.995000000     4.802000000
H    -0.957000000    -2.940000000     4.515000000
O    -1.479000000    -7.390000000     2.127000000
H    -1.247000000    -6.461000000     2.137000000
H    -2.414000000    -7.401000000     1.922000000
O     0.929000000     4.831000000     4.539000000
H     0.649000000     4.061000000     4.044000000
H     0.118000000     5.304000000     4.726000000
O    -1.202000000    -1.399000000    -5.712000000
H    -1.613000000    -1.654000000    -4.886000000
H    -1.551000000    -2.017000000    -6.354000000
O    -6.116000000     0.767000000     1.809000000
H    -6.210000000     1.483000000     1.180000000
H    -6.171000000     1.192000000     2.665000000
O     0.229000000     2.552000000     3.094000000
H     0.601000000     1.707000000     2.841000000
H    -0.371000000     2.345000000     3.811000000
O     4.787000000    -3.437000000     2.547000000
H     5.090000000    -3.102000000     3.391000000
H     5.335000000    -2.990000000     1.902000000
