158
-3042.11918
C    -1.092000000    -0.714000000     0.559000000
H    -1.903000000    -1.302000000     0.982000000
C    -0.393000000     0.309000000     1.229000000
H    -0.674000000     0.447000000     2.270000000
C     0.612000000     0.945000000     0.537000000
H     1.209000000     1.701000000     1.033000000
C     0.936000000     0.539000000    -0.756000000
H     1.792000000     0.891000000    -1.327000000
C     0.269000000    -0.552000000    -1.371000000
H     0.528000000    -0.787000000    -2.400000000
C    -0.814000000    -1.141000000    -0.760000000
C    -1.663000000    -2.129000000    -1.483000000
O    -1.358000000    -2.490000000    -2.594000000
O    -2.615000000    -2.630000000    -0.886000000
O    -5.518000000    -3.603000000     2.617000000
H    -6.142000000    -2.989000000     3.004000000
H    -5.901000000    -3.832000000     1.770000000
O    -1.043000000    -6.485000000    -0.207000000
H    -0.486000000    -6.147000000     0.495000000
H    -0.700000000    -6.078000000    -1.002000000
O    -5.199000000    -1.769000000    -0.456000000
H    -4.392000000    -2.167000000    -0.128000000
H    -5.212000000    -1.988000000    -1.388000000
O     6.030000000     4.349000000    -0.068000000
H     6.855000000     4.809000000     0.087000000
H     6.294000000     3.462000000    -0.314000000
O    -4.248000000     0.517000000    -5.873000000
H    -3.851000000     0.540000000    -5.003000000
H    -4.159000000    -0.394000000    -6.153000000
O    -0.040000000     4.778000000    -1.793000000
H    -0.877000000     5.023000000    -1.398000000
H    -0.064000000     3.822000000    -1.831000000
O    -5.675000000    -2.487000000    -3.041000000
H    -5.131000000    -2.331000000    -3.813000000
H    -5.962000000    -3.396000000    -3.130000000
O     6.140000000     1.253000000    -3.406000000
H     6.170000000     1.550000000    -4.316000000
H     5.921000000     0.323000000    -3.466000000
O    -3.213000000     2.581000000     1.600000000
H    -3.522000000     3.003000000     2.402000000
H    -3.840000000     1.875000000     1.444000000
O    -2.939000000    -4.527000000    -2.866000000
H    -2.244000000    -3.997000000    -2.476000000
H    -3.601000000    -4.598000000    -2.178000000
O    -1.673000000     2.397000000    -0.939000000
H    -1.184000000     1.623000000    -0.660000000
H    -1.925000000     2.829000000    -0.123000000
O     3.169000000     1.612000000    -3.602000000
H     3.935000000     1.275000000    -4.068000000
H     3.533000000     2.192000000    -2.933000000
O    -1.722000000     1.347000000     4.748000000
H    -2.317000000     1.747000000     5.383000000
H    -2.298000000     0.889000000     4.136000000
O     6.168000000     1.559000000    -0.023000000
H     6.623000000     1.080000000     0.670000000
H     5.466000000     0.971000000    -0.300000000
O     0.841000000    -1.999000000     5.676000000
H     1.701000000    -2.220000000     5.320000000
H     0.351000000    -1.660000000     4.926000000
O     3.999000000     1.529000000     1.867000000
H     3.383000000     2.258000000     1.794000000
H     4.857000000     1.924000000     1.710000000
O     6.330000000     2.929000000     2.741000000
H     7.158000000     2.710000000     3.168000000
H     6.504000000     3.757000000     2.293000000
O     4.432000000    -1.832000000    -0.742000000
H     3.795000000    -1.815000000    -1.456000000
H     5.265000000    -2.030000000    -1.169000000
O    -0.102000000    -2.029000000    -4.787000000
H    -0.685000000    -2.217000000    -5.522000000
H    -0.550000000    -2.396000000    -4.025000000
O    -3.618000000     0.853000000    -3.174000000
H    -3.068000000     1.514000000    -2.753000000
H    -4.009000000     0.368000000    -2.447000000
O    -0.744000000     3.915000000     2.806000000
H    -1.418000000     4.300000000     2.245000000
H    -1.137000000     3.104000000     3.130000000
O     4.815000000    -0.830000000    -4.424000000
H     3.952000000    -1.189000000    -4.215000000
H     4.920000000    -0.990000000    -5.362000000
O     1.158000000     2.570000000     5.902000000
H     0.408000000     2.019000000     6.123000000
H     1.270000000     2.455000000     4.958000000
O    -2.342000000    -4.740000000    -5.570000000
H    -1.486000000    -5.167000000    -5.541000000
H    -2.637000000    -4.734000000    -4.660000000
O     2.560000000    -2.316000000    -4.114000000
H     2.090000000    -2.942000000    -3.563000000
H     1.889000000    -1.698000000    -4.402000000
O     4.135000000     4.307000000     4.872000000
H     3.268000000     4.614000000     5.136000000
H     3.960000000     3.557000000     4.303000000
O    -1.307000000     2.796000000    -6.220000000
H    -0.676000000     2.424000000    -5.605000000
H    -2.099000000     2.272000000    -6.098000000
O    -5.530000000    -6.401000000     1.537000000
H    -5.008000000    -6.663000000     2.296000000
H    -4.929000000    -5.885000000     1.000000000
O    -3.082000000    -2.457000000     3.577000000
H    -3.399000000    -3.246000000     3.137000000
H    -3.191000000    -2.643000000     4.509000000
O    -1.838000000     5.013000000     5.455000000
H    -1.516000000     4.972000000     4.554000000
H    -1.299000000     5.685000000     5.872000000
O    -5.277000000     0.779000000     0.994000000
H    -5.922000000     1.297000000     0.513000000
H    -5.299000000    -0.081000000     0.573000000
O    -4.091000000     0.068000000     3.508000000
H    -4.005000000    -0.845000000     3.781000000
H    -4.362000000     0.020000000     2.591000000
O     0.145000000    -5.770000000    -5.157000000
H     0.860000000    -6.302000000    -5.506000000
H     0.269000000    -5.794000000    -4.208000000
O     0.540000000     1.441000000    -4.429000000
H     1.439000000     1.358000000    -4.112000000
H     0.280000000     0.547000000    -4.651000000
O     4.173000000     1.312000000     4.554000000
H     3.250000000     1.142000000     4.740000000
H     4.221000000     1.352000000     3.599000000
O     3.705000000     3.538000000    -1.288000000
H     4.162000000     4.022000000    -0.599000000
H     3.231000000     4.209000000    -1.778000000
O    -0.439000000    -1.663000000     3.381000000
H    -1.360000000    -1.914000000     3.452000000
H    -0.057000000    -2.316000000     2.795000000
O    -2.973000000    -1.848000000    -5.078000000
H    -2.960000000    -2.786000000    -5.268000000
H    -2.437000000    -1.756000000    -4.291000000
O     2.266000000     6.267000000     2.131000000
H     2.647000000     5.389000000     2.132000000
H     1.602000000     6.241000000     2.821000000
O     2.474000000     5.671000000    -2.916000000
H     2.395000000     5.803000000    -3.861000000
H     1.593000000     5.424000000    -2.635000000
O    -3.243000000    -5.010000000     0.303000000
H    -2.839000000    -4.202000000    -0.012000000
H    -2.611000000    -5.695000000     0.086000000
O     0.056000000    -5.147000000     1.664000000
H     0.555000000    -4.343000000     1.516000000
H    -0.426000000    -4.984000000     2.474000000
O    -7.845000000    -0.937000000    -0.595000000
H    -7.504000000    -0.048000000    -0.496000000
H    -7.070000000    -1.497000000    -0.556000000
O     1.970000000     3.586000000     2.871000000
H     1.647000000     2.690000000     2.967000000
H     1.184000000     4.130000000     2.921000000
O    -1.072000000    -2.778000000    -7.292000000
H    -1.666000000    -3.300000000    -6.753000000
H    -1.109000000    -3.188000000    -8.156000000
O     1.479000000     0.873000000     3.670000000
H     1.714000000     0.130000000     3.115000000
H     0.611000000     0.654000000     4.009000000
O    -2.907000000     3.424000000    -3.055000000
H    -2.488000000     4.056000000    -3.640000000
H    -2.260000000     3.269000000    -2.367000000
O     1.492000000    -2.387000000     1.060000000
H     1.334000000    -1.640000000     0.482000000
H     2.219000000    -2.109000000     1.617000000
