158
-3014.65480
C    -1.283000000    -0.536000000     0.570000000
H    -2.212000000    -0.838000000     1.047000000
C    -0.210000000     0.040000000     1.254000000
H    -0.285000000     0.356000000     2.291000000
C     0.993000000     0.443000000     0.646000000
H     1.794000000     0.920000000     1.264000000
C     1.164000000     0.179000000    -0.686000000
H     1.971000000     0.635000000    -1.253000000
C     0.088000000    -0.460000000    -1.365000000
H     0.097000000    -0.488000000    -2.452000000
C    -1.133000000    -0.780000000    -0.783000000
C    -2.272000000    -1.244000000    -1.592000000
O    -2.246000000    -1.239000000    -2.792000000
O    -3.234000000    -1.755000000    -1.062000000
O    -0.993000000    -4.725000000    -1.472000000
H    -0.838000000    -5.556000000    -1.022000000
H    -0.185000000    -4.563000000    -1.960000000
O    -0.488000000    -5.035000000    -5.715000000
H     0.016000000    -4.620000000    -6.416000000
H    -0.739000000    -4.312000000    -5.140000000
O     4.836000000     3.946000000     0.236000000
H     4.480000000     4.282000000    -0.586000000
H     5.552000000     3.369000000    -0.030000000
O    -5.095000000    -0.541000000     0.341000000
H    -4.375000000    -0.931000000    -0.154000000
H    -5.577000000    -1.289000000     0.695000000
O    -0.713000000     2.589000000    -5.814000000
H    -1.411000000     3.199000000    -5.574000000
H    -0.926000000     1.784000000    -5.343000000
O    -5.316000000    -5.160000000    -0.396000000
H    -4.421000000    -5.463000000    -0.245000000
H    -5.596000000    -4.808000000     0.449000000
O    -1.521000000    -1.325000000    -6.994000000
H    -0.566000000    -1.332000000    -7.065000000
H    -1.828000000    -1.260000000    -7.899000000
O    -5.804000000     1.772000000     3.543000000
H    -6.013000000     2.409000000     2.860000000
H    -4.867000000     1.608000000     3.437000000
O     5.394000000     0.125000000     5.629000000
H     4.992000000     0.770000000     6.212000000
H     6.313000000     0.388000000     5.580000000
O    -3.249000000    -4.077000000    -2.613000000
H    -3.355000000    -3.150000000    -2.399000000
H    -2.459000000    -4.343000000    -2.144000000
O    -1.959000000     5.932000000     2.487000000
H    -1.813000000     6.757000000     2.024000000
H    -1.703000000     5.256000000     1.859000000
O     3.134000000     2.499000000    -2.899000000
H     3.816000000     2.823000000    -3.488000000
H     2.591000000     1.934000000    -3.449000000
O    -1.209000000     0.304000000    -4.753000000
H    -1.561000000    -0.270000000    -5.433000000
H    -1.365000000    -0.169000000    -3.936000000
O     4.419000000     1.504000000     3.418000000
H     4.672000000     0.908000000     2.714000000
H     4.519000000     0.987000000     4.218000000
O    -5.653000000    -2.558000000    -2.578000000
H    -5.358000000    -2.369000000    -1.688000000
H    -5.183000000    -3.355000000    -2.822000000
O     0.792000000    -2.402000000     4.183000000
H     0.870000000    -2.890000000     5.003000000
H    -0.101000000    -2.058000000     4.194000000
O     1.371000000     4.104000000    -0.845000000
H     0.979000000     3.236000000    -0.935000000
H     2.119000000     4.092000000    -1.442000000
O     7.581000000     1.376000000     1.258000000
H     7.456000000     1.832000000     0.425000000
H     6.693000000     1.192000000     1.565000000
O     4.908000000    -1.643000000    -2.117000000
H     4.128000000    -1.911000000    -1.632000000
H     4.581000000    -1.407000000    -2.985000000
O    -3.718000000     2.307000000    -2.155000000
H    -3.701000000     1.654000000    -2.855000000
H    -3.228000000     3.049000000    -2.508000000
O    -3.260000000     1.791000000     0.645000000
H    -4.052000000     1.274000000     0.794000000
H    -3.202000000     1.872000000    -0.307000000
O    -4.394000000    -0.150000000    -6.087000000
H    -3.497000000     0.173000000    -6.171000000
H    -4.531000000    -0.234000000    -5.143000000
O     1.580000000     4.723000000     1.915000000
H     1.321000000     3.889000000     2.305000000
H     1.498000000     4.583000000     0.971000000
O     3.850000000     4.383000000     3.455000000
H     4.222000000     3.541000000     3.191000000
H     3.217000000     4.590000000     2.767000000
O     5.350000000     0.002000000     1.064000000
H     4.720000000     0.033000000     0.344000000
H     5.681000000    -0.896000000     1.054000000
O    -3.534000000    -6.611000000    -3.786000000
H    -3.142000000    -6.284000000    -4.595000000
H    -3.531000000    -5.857000000    -3.196000000
O     1.494000000     0.633000000    -4.794000000
H     1.690000000     0.894000000    -5.693000000
H     0.541000000     0.545000000    -4.773000000
O    -2.531000000    -4.456000000     3.279000000
H    -2.457000000    -3.620000000     3.739000000
H    -2.568000000    -4.218000000     2.353000000
O     1.062000000    -3.505000000    -2.950000000
H     1.784000000    -3.965000000    -3.376000000
H     0.582000000    -3.093000000    -3.670000000
O    -7.105000000    -2.307000000     1.773000000
H    -6.377000000    -2.926000000     1.837000000
H    -7.581000000    -2.578000000     0.988000000
O    -2.890000000     0.970000000     3.370000000
H    -2.040000000     1.131000000     3.778000000
H    -2.720000000     1.027000000     2.430000000
O     3.616000000    -1.265000000    -4.442000000
H     3.023000000    -1.998000000    -4.277000000
H     3.060000000    -0.489000000    -4.384000000
O    -1.002000000    -2.767000000    -4.442000000
H    -1.281000000    -2.301000000    -3.654000000
H    -1.217000000    -2.173000000    -5.161000000
O    -1.296000000     3.349000000     1.239000000
H    -0.684000000     2.625000000     1.098000000
H    -2.161000000     2.957000000     1.120000000
O     3.704000000     3.415000000     6.257000000
H     2.958000000     2.817000000     6.299000000
H     3.723000000     3.711000000     5.347000000
O     0.867000000     3.767000000     6.257000000
H     1.306000000     4.422000000     6.799000000
H     0.988000000     2.944000000     6.731000000
O    -0.968000000     1.274000000     5.558000000
H    -0.999000000     0.564000000     6.199000000
H    -1.550000000     1.945000000     5.915000000
O    -3.793000000    -0.357000000     5.902000000
H    -3.304000000     0.175000000     6.530000000
H    -3.702000000     0.108000000     5.071000000
O    -4.704000000    -0.189000000    -3.486000000
H    -5.359000000    -0.768000000    -3.096000000
H    -3.864000000    -0.572000000    -3.234000000
O     4.871000000    -3.781000000     1.671000000
H     4.332000000    -3.626000000     0.895000000
H     4.418000000    -3.316000000     2.374000000
O     2.903000000    -2.403000000    -0.603000000
H     2.122000000    -1.932000000    -0.313000000
H     2.566000000    -3.206000000    -1.001000000
O    -2.285000000    -3.776000000     0.707000000
H    -2.628000000    -3.006000000     0.254000000
H    -1.821000000    -4.266000000     0.028000000
O    -6.758000000     1.822000000    -0.720000000
H    -6.976000000     2.418000000    -0.004000000
H    -6.070000000     1.261000000    -0.364000000
O     4.232000000    -2.394000000     3.977000000
H     3.544000000    -2.133000000     4.590000000
H     5.018000000    -1.951000000     4.296000000
O     1.384000000     7.075000000     3.225000000
H     0.667000000     7.608000000     2.881000000
H     1.182000000     6.185000000     2.935000000
O     0.546000000     3.077000000     3.776000000
H     0.930000000     3.590000000     4.487000000
H     0.061000000     2.381000000     4.218000000
O    -2.038000000    -2.176000000     4.709000000
H    -2.800000000    -1.621000000     4.872000000
H    -1.666000000    -2.333000000     5.577000000
O     0.475000000    -4.072000000     2.108000000
H    -0.242000000    -3.875000000     1.506000000
H     0.515000000    -3.313000000     2.690000000
