158
-3041.18313
C    -1.279000000    -0.622000000    -0.300000000
H    -2.221000000    -1.155000000    -0.403000000
C    -0.830000000    -0.346000000     0.985000000
H    -1.347000000    -0.683000000     1.880000000
C     0.426000000     0.232000000     1.154000000
H     0.744000000     0.497000000     2.124000000
C     1.177000000     0.620000000     0.072000000
H     2.130000000     1.070000000     0.338000000
C     0.715000000     0.368000000    -1.219000000
H     1.256000000     0.693000000    -2.104000000
C    -0.578000000    -0.237000000    -1.438000000
C    -1.083000000    -0.521000000    -2.834000000
O    -0.623000000     0.096000000    -3.764000000
O    -1.959000000    -1.352000000    -3.063000000
O    -3.268000000    -0.878000000     4.009000000
H    -2.994000000     0.017000000     4.209000000
H    -3.624000000    -1.210000000     4.833000000
O    -3.118000000    -3.671000000    -4.604000000
H    -2.673000000    -3.533000000    -5.440000000
H    -3.145000000    -2.803000000    -4.201000000
O     2.610000000    -4.679000000     1.191000000
H     2.803000000    -3.742000000     1.214000000
H     1.792000000    -4.743000000     0.697000000
O     1.858000000     3.261000000    -5.093000000
H     2.036000000     3.281000000    -6.033000000
H     1.530000000     2.376000000    -4.930000000
O     4.267000000     2.484000000     2.654000000
H     4.080000000     2.468000000     3.592000000
H     3.495000000     2.894000000     2.263000000
O    -6.324000000    -2.759000000    -3.271000000
H    -6.460000000    -1.839000000    -3.496000000
H    -5.581000000    -2.752000000    -2.667000000
O    -3.294000000    -4.773000000    -0.989000000
H    -3.501000000    -3.856000000    -1.169000000
H    -3.428000000    -5.217000000    -1.826000000
O     6.432000000     3.035000000     0.976000000
H     6.482000000     2.276000000     0.395000000
H     5.687000000     2.849000000     1.549000000
O     6.302000000    -1.326000000     3.535000000
H     6.928000000    -0.979000000     2.899000000
H     6.515000000    -2.257000000     3.598000000
O    -0.606000000     1.678000000     6.446000000
H    -0.381000000     0.847000000     6.862000000
H    -0.291000000     1.589000000     5.547000000
O    -1.513000000     3.117000000    -3.725000000
H    -0.891000000     3.072000000    -2.998000000
H    -1.900000000     2.242000000    -3.764000000
O    -0.314000000    -0.035000000    -8.960000000
H    -0.109000000    -0.524000000    -8.163000000
H     0.303000000     0.698000000    -8.956000000
O     3.101000000    -0.255000000     5.733000000
H     2.579000000     0.515000000     5.506000000
H     2.915000000    -0.884000000     5.035000000
O     5.043000000    -1.828000000    -0.920000000
H     5.571000000    -2.615000000    -0.788000000
H     5.248000000    -1.273000000    -0.168000000
O    -4.791000000    -1.872000000     0.969000000
H    -4.486000000    -1.122000000     1.480000000
H    -5.505000000    -2.241000000     1.488000000
O     2.738000000     4.572000000     1.679000000
H     3.299000000     5.102000000     1.114000000
H     1.903000000     4.527000000     1.213000000
O    -4.648000000    -5.177000000     1.667000000
H    -4.172000000    -5.143000000     0.838000000
H    -4.149000000    -4.608000000     2.253000000
O     4.626000000     0.035000000     1.090000000
H     5.444000000    -0.146000000     1.553000000
H     4.193000000     0.703000000     1.622000000
O    -2.275000000    -1.104000000    -6.001000000
H    -2.608000000    -0.235000000    -6.227000000
H    -2.130000000    -1.067000000    -5.056000000
O    -3.130000000    -3.933000000     3.432000000
H    -2.235000000    -4.233000000     3.273000000
H    -3.026000000    -3.099000000     3.889000000
O     4.172000000     1.861000000    -3.827000000
H     4.303000000     0.979000000    -3.480000000
H     3.715000000     1.727000000    -4.657000000
O     0.088000000    -0.867000000     7.157000000
H    -0.301000000    -1.616000000     6.706000000
H     0.675000000    -1.255000000     7.806000000
O    -1.690000000     4.972000000     4.136000000
H    -2.082000000     5.843000000     4.074000000
H    -2.015000000     4.507000000     3.365000000
O     3.045000000    -2.253000000     3.774000000
H     2.614000000    -2.052000000     2.943000000
H     3.913000000    -1.856000000     3.696000000
O    -0.225000000    -4.122000000    -5.654000000
H    -0.201000000    -5.068000000    -5.797000000
H    -0.391000000    -4.026000000    -4.716000000
O    -5.228000000     2.428000000     1.475000000
H    -5.263000000     1.636000000     2.011000000
H    -5.902000000     2.294000000     0.807000000
O     1.396000000     0.690000000    -5.374000000
H     0.665000000     0.434000000    -4.812000000
H     1.357000000     0.079000000    -6.110000000
O     0.755000000     4.200000000     0.183000000
H    -0.093000000     3.757000000     0.199000000
H     0.952000000     4.309000000    -0.747000000
O     1.565000000     4.292000000    -2.472000000
H     1.877000000     3.546000000    -2.984000000
H     2.093000000     5.030000000    -2.776000000
O    -3.851000000    -5.848000000    -3.355000000
H    -4.635000000    -6.027000000    -3.874000000
H    -3.356000000    -5.218000000    -3.878000000
O     0.114000000    -1.626000000    -6.924000000
H    -0.793000000    -1.383000000    -6.743000000
H     0.251000000    -2.430000000    -6.423000000
O    -1.544000000     2.549000000     0.315000000
H    -1.249000000     1.655000000     0.488000000
H    -2.247000000     2.696000000     0.948000000
O    -4.100000000    -2.232000000    -1.733000000
H    -3.395000000    -1.785000000    -2.201000000
H    -4.227000000    -1.712000000    -0.939000000
O     1.564000000     2.066000000     4.353000000
H     2.010000000     2.654000000     4.962000000
H     1.323000000     2.624000000     3.614000000
O     3.196000000     3.827000000     5.446000000
H     4.055000000     3.509000000     5.723000000
H     2.917000000     4.409000000     6.154000000
O    -0.254000000    -3.984000000    -2.849000000
H    -1.082000000    -3.657000000    -3.201000000
H    -0.368000000    -3.950000000    -1.899000000
O     5.026000000    -0.898000000    -3.591000000
H     4.192000000    -1.363000000    -3.661000000
H     5.343000000    -1.105000000    -2.712000000
O     2.558000000    -1.977000000     1.074000000
H     3.260000000    -1.650000000     0.512000000
H     1.800000000    -1.437000000     0.849000000
O    -0.384000000    -4.351000000     2.738000000
H    -0.128000000    -5.198000000     3.103000000
H     0.217000000    -3.725000000     3.143000000
O     2.710000000    -2.335000000    -4.022000000
H     2.291000000    -3.041000000    -3.529000000
H     1.988000000    -1.899000000    -4.475000000
O    -0.629000000    -4.261000000    -0.088000000
H    -0.642000000    -4.131000000     0.860000000
H    -1.549000000    -4.370000000    -0.328000000
O    -3.078000000     2.514000000     6.374000000
H    -3.076000000     3.396000000     6.002000000
H    -2.170000000     2.220000000     6.298000000
O    -3.512000000     1.261000000    -3.813000000
H    -3.560000000     0.645000000    -3.082000000
H    -4.410000000     1.317000000    -4.139000000
O     4.807000000     5.428000000    -0.371000000
H     5.111000000     4.526000000    -0.278000000
H     4.692000000     5.546000000    -1.314000000
O    -3.462000000     1.500000000    -7.173000000
H    -3.141000000     1.719000000    -8.048000000
H    -3.416000000     2.325000000    -6.689000000
O     0.492000000     5.053000000     5.463000000
H    -0.418000000     5.062000000     5.164000000
H     0.993000000     5.377000000     4.714000000
O     1.510000000     6.545000000     3.181000000
H     2.056000000     5.764000000     3.097000000
H     1.636000000     7.016000000     2.357000000
O    -0.766000000     2.479000000    -6.885000000
H    -0.128000000     1.807000000    -7.127000000
H    -0.863000000     2.386000000    -5.937000000
