158
-3040.21298
C    -0.422000000    -1.131000000    -0.849000000
H    -0.698000000    -2.024000000    -1.403000000
C    -0.156000000    -1.191000000     0.560000000
H    -0.319000000    -2.136000000     1.071000000
C     0.173000000    -0.043000000     1.228000000
H     0.395000000    -0.169000000     2.314000000
C     0.301000000     1.202000000     0.558000000
H     0.596000000     2.143000000     1.016000000
C     0.028000000     1.275000000    -0.814000000
H     0.097000000     2.258000000    -1.272000000
C    -0.286000000     0.102000000    -1.523000000
C    -0.568000000     0.155000000    -3.006000000
O    -0.454000000     1.180000000    -3.588000000
O    -0.861000000    -0.828000000    -3.657000000
O    -3.242000000     0.554000000     0.519000000
H    -2.834000000    -0.248000000     0.845000000
H    -2.665000000     1.256000000     0.821000000
O     0.454000000    -1.604000000    -7.831000000
H    -0.492000000    -1.668000000    -7.962000000
H     0.560000000    -0.903000000    -7.188000000
O     5.351000000    -3.054000000     5.829000000
H     4.937000000    -2.776000000     5.012000000
H     5.972000000    -3.733000000     5.564000000
O     4.113000000     1.876000000    -1.147000000
H     4.211000000     2.354000000    -1.971000000
H     4.276000000     2.532000000    -0.469000000
O    -4.849000000    -3.084000000    -2.108000000
H    -5.693000000    -3.360000000    -1.751000000
H    -5.073000000    -2.553000000    -2.872000000
O     3.876000000     0.031000000     1.582000000
H     3.576000000     0.903000000     1.838000000
H     3.229000000    -0.266000000     0.942000000
O     4.292000000     2.737000000     5.561000000
H     3.556000000     2.885000000     4.966000000
H     4.595000000     1.854000000     5.351000000
O     2.959000000    -0.472000000    -4.360000000
H     3.871000000    -0.561000000    -4.636000000
H     3.008000000    -0.318000000    -3.416000000
O    -0.677000000    -5.332000000    -0.554000000
H    -1.042000000    -6.041000000    -1.083000000
H    -1.402000000    -4.718000000    -0.442000000
O     0.676000000     4.175000000     2.931000000
H     0.755000000     4.295000000     1.985000000
H     0.270000000     4.984000000     3.243000000
O    -5.052000000    -4.605000000     1.345000000
H    -4.255000000    -4.087000000     1.227000000
H    -4.768000000    -5.511000000     1.227000000
O    -2.525000000    -1.440000000    -7.770000000
H    -2.170000000    -0.552000000    -7.823000000
H    -2.848000000    -1.621000000    -8.653000000
O    -4.152000000     0.964000000    -2.034000000
H    -5.080000000     1.174000000    -1.929000000
H    -3.903000000     0.559000000    -1.203000000
O     2.094000000    -0.948000000     4.868000000
H     1.235000000    -1.357000000     4.769000000
H     1.993000000    -0.080000000     4.477000000
O    -0.451000000    -5.127000000     2.389000000
H    -0.599000000    -4.530000000     1.656000000
H     0.242000000    -4.710000000     2.901000000
O     2.994000000     2.728000000     2.284000000
H     3.489000000     3.189000000     1.607000000
H     2.362000000     3.373000000     2.601000000
O    -2.626000000    -3.521000000     0.326000000
H    -3.286000000    -3.190000000    -0.283000000
H    -2.452000000    -2.786000000     0.913000000
O     4.778000000     4.040000000     0.754000000
H     5.529000000     4.595000000     0.961000000
H     4.245000000     4.569000000     0.160000000
O     4.408000000    -0.335000000     6.567000000
H     3.585000000    -0.393000000     6.082000000
H     5.047000000    -0.034000000     5.921000000
O     0.674000000     0.359000000    -5.859000000
H     0.086000000     0.645000000    -5.160000000
H     1.503000000     0.179000000    -5.416000000
O    -2.578000000    -1.690000000     2.762000000
H    -3.298000000    -1.213000000     3.174000000
H    -1.890000000    -1.706000000     3.427000000
O    -4.578000000     4.827000000    -3.159000000
H    -3.812000000     4.255000000    -3.205000000
H    -5.014000000     4.711000000    -4.002000000
O     1.149000000     1.555000000     4.223000000
H     1.385000000     2.296000000     3.665000000
H     0.512000000     1.914000000     4.841000000
O    -4.290000000    -0.370000000     4.247000000
H    -4.195000000     0.037000000     5.108000000
H    -5.234000000    -0.487000000     4.139000000
O     1.373000000    -4.207000000     4.606000000
H     2.310000000    -4.228000000     4.410000000
H     1.154000000    -5.113000000     4.823000000
O    -1.307000000    -2.708000000    -5.438000000
H    -1.148000000    -2.142000000    -4.683000000
H    -1.581000000    -2.109000000    -6.133000000
O    -1.829000000     4.532000000     0.069000000
H    -2.277000000     3.946000000     0.679000000
H    -1.980000000     4.142000000    -0.792000000
O    -0.280000000     4.369000000    -3.999000000
H    -0.975000000     3.786000000    -4.303000000
H     0.340000000     3.791000000    -3.554000000
O    -5.119000000    -2.256000000    -6.330000000
H    -4.443000000    -2.320000000    -7.005000000
H    -4.829000000    -1.537000000    -5.768000000
O    -1.904000000     2.445000000    -5.403000000
H    -1.385000000     1.787000000    -4.941000000
H    -2.813000000     2.204000000    -5.221000000
O    -2.087000000     3.637000000     2.983000000
H    -2.674000000     3.443000000     3.713000000
H    -1.211000000     3.454000000     3.325000000
O    -3.784000000    -0.901000000    -4.021000000
H    -2.911000000    -1.291000000    -3.969000000
H    -3.800000000    -0.255000000    -3.314000000
O     2.464000000    -2.853000000    -2.428000000
H     2.496000000    -2.528000000    -3.327000000
H     2.530000000    -2.066000000    -1.886000000
O     0.040000000    -4.724000000    -3.924000000
H    -0.605000000    -4.090000000    -4.238000000
H     0.709000000    -4.193000000    -3.493000000
O     3.937000000    -2.392000000     3.663000000
H     3.216000000    -1.971000000     4.132000000
H     4.085000000    -1.834000000     2.900000000
O    -1.590000000     0.036000000     6.503000000
H    -1.197000000    -0.755000000     6.134000000
H    -1.209000000     0.752000000     5.996000000
O     3.400000000     5.232000000    -1.233000000
H     3.904000000     5.961000000    -1.594000000
H     3.340000000     4.603000000    -1.953000000
O     2.664000000    -0.241000000    -1.287000000
H     3.378000000     0.388000000    -1.188000000
H     1.971000000     0.091000000    -0.716000000
O    -0.579000000    -2.554000000     5.001000000
H    -1.297000000    -2.970000000     5.479000000
H     0.126000000    -3.201000000     5.019000000
O    -1.450000000    -4.559000000    -7.625000000
H    -2.356000000    -4.854000000    -7.527000000
H    -1.384000000    -3.794000000    -7.053000000
O     2.007000000     3.031000000    -2.941000000
H     2.894000000     2.714000000    -3.113000000
H     1.490000000     2.236000000    -2.813000000
O     6.503000000     0.189000000     1.073000000
H     5.583000000     0.272000000     1.323000000
H     6.881000000     1.048000000     1.262000000
O    -0.972000000     2.781000000     5.669000000
H    -0.666000000     3.004000000     6.548000000
H    -1.848000000     3.163000000     5.616000000
O     1.777000000    -4.220000000    -0.191000000
H     2.221000000    -3.822000000    -0.940000000
H     0.991000000    -4.620000000    -0.563000000
O    -2.447000000     3.026000000    -2.497000000
H    -1.766000000     2.606000000    -3.023000000
H    -3.128000000     2.360000000    -2.411000000
O    -1.377000000     1.492000000    -8.031000000
H    -1.388000000     2.437000000    -8.185000000
H    -0.959000000     1.394000000    -7.176000000
O     0.478000000     6.976000000    -2.820000000
H     0.454000000     6.027000000    -2.945000000
H     0.299000000     7.336000000    -3.689000000
O     1.140000000     4.925000000     0.457000000
H     0.251000000     4.631000000     0.262000000
H     1.420000000     5.383000000    -0.335000000
