158
-3010.91446
C     0.695000000    -0.683000000    -1.153000000
H     1.288000000    -1.146000000    -1.938000000
C     1.035000000    -0.791000000     0.181000000
H     1.795000000    -1.501000000     0.498000000
C     0.417000000     0.000000000     1.137000000
H     0.686000000     0.001000000     2.142000000
C    -0.611000000     0.923000000     0.762000000
H    -1.080000000     1.536000000     1.528000000
C    -1.100000000     0.886000000    -0.511000000
H    -1.848000000     1.586000000    -0.874000000
C    -0.419000000     0.113000000    -1.500000000
C    -0.866000000     0.038000000    -2.954000000
O    -1.715000000     0.834000000    -3.390000000
O    -0.366000000    -0.729000000    -3.762000000
O    -1.598000000     2.649000000     7.809000000
H    -0.885000000     2.049000000     8.028000000
H    -1.907000000     2.351000000     6.953000000
O    -1.786000000     1.036000000    -7.895000000
H    -2.493000000     1.318000000    -7.314000000
H    -1.065000000     0.815000000    -7.305000000
O    -4.566000000     3.235000000    -0.595000000
H    -4.527000000     2.656000000     0.166000000
H    -5.421000000     3.057000000    -0.988000000
O     4.312000000     2.098000000     3.200000000
H     4.461000000     3.043000000     3.233000000
H     5.181000000     1.724000000     3.052000000
O    -3.909000000    -1.755000000    -2.291000000
H    -3.678000000    -1.868000000    -3.213000000
H    -3.209000000    -2.200000000    -1.812000000
O    -1.869000000    -3.131000000    -1.028000000
H    -1.291000000    -3.515000000    -0.369000000
H    -1.660000000    -3.602000000    -1.835000000
O    -3.830000000     2.183000000    -3.173000000
H    -3.071000000     1.643000000    -3.393000000
H    -3.608000000     2.576000000    -2.329000000
O     2.914000000     2.104000000    -0.932000000
H     2.642000000     2.262000000    -1.836000000
H     2.237000000     2.524000000    -0.402000000
O     1.377000000    -4.530000000    -5.122000000
H     0.843000000    -5.257000000    -4.800000000
H     1.860000000    -4.229000000    -4.353000000
O    -2.563000000    -1.418000000     1.634000000
H    -2.633000000    -2.367000000     1.530000000
H    -2.227000000    -1.109000000     0.793000000
O     5.678000000    -3.269000000    -2.134000000
H     5.944000000    -2.473000000    -1.673000000
H     4.933000000    -3.600000000    -1.632000000
O    -4.451000000     0.947000000     1.817000000
H    -4.001000000     1.658000000     2.272000000
H    -3.872000000     0.192000000     1.920000000
O     2.301000000     2.838000000     6.275000000
H     2.897000000     3.305000000     6.861000000
H     2.030000000     3.496000000     5.634000000
O     1.575000000     2.811000000    -3.209000000
H     2.034000000     3.632000000    -3.387000000
H     0.665000000     2.989000000    -3.445000000
O    -0.617000000    -4.238000000     1.055000000
H    -0.311000000    -3.505000000     1.590000000
H     0.043000000    -4.919000000     1.181000000
O    -4.093000000     1.937000000    -6.859000000
H    -3.987000000     2.382000000    -7.699000000
H    -4.877000000     1.399000000    -6.970000000
O     4.837000000     1.216000000    -2.897000000
H     4.197000000     0.810000000    -3.483000000
H     4.383000000     1.287000000    -2.058000000
O     0.772000000     0.788000000    -6.740000000
H     1.671000000     1.014000000    -6.981000000
H     0.828000000     0.533000000    -5.819000000
O     4.082000000     0.832000000     6.760000000
H     3.464000000     0.235000000     7.182000000
H     3.531000000     1.424000000     6.249000000
O     2.439000000     0.223000000    -4.084000000
H     2.118000000     1.033000000    -3.689000000
H     1.711000000    -0.391000000    -3.996000000
O     0.409000000    -5.301000000     4.628000000
H     0.180000000    -6.038000000     4.062000000
H     1.306000000    -5.482000000     4.905000000
O     2.311000000    -1.546000000     7.211000000
H     2.134000000    -1.907000000     6.342000000
H     1.957000000    -2.196000000     7.818000000
O    -5.099000000    -1.535000000    -5.478000000
H    -5.611000000    -0.730000000    -5.404000000
H    -4.207000000    -1.236000000    -5.652000000
O    -0.822000000     5.646000000    -5.841000000
H    -0.838000000     4.954000000    -5.181000000
H    -0.545000000     6.428000000    -5.363000000
O    -4.779000000     3.842000000    -5.059000000
H    -4.378000000     3.670000000    -5.911000000
H    -4.713000000     3.010000000    -4.591000000
O    -2.602000000    -0.616000000    -5.490000000
H    -1.783000000    -1.058000000    -5.710000000
H    -2.374000000    -0.035000000    -4.764000000
O    -1.123000000    -3.401000000    -3.807000000
H    -1.180000000    -2.818000000    -4.563000000
H    -0.944000000    -2.819000000    -3.068000000
O     4.068000000    -3.818000000     1.799000000
H     4.229000000    -2.899000000     2.013000000
H     4.604000000    -4.307000000     2.425000000
O    -2.960000000     3.049000000     2.951000000
H    -3.755000000     3.470000000     3.277000000
H    -2.720000000     3.557000000     2.176000000
O    -0.785000000    -6.086000000    -4.042000000
H    -1.557000000    -6.487000000    -4.441000000
H    -1.037000000    -5.174000000    -3.895000000
O     2.091000000    -4.353000000    -2.559000000
H     2.433000000    -4.626000000    -1.708000000
H     1.912000000    -3.418000000    -2.456000000
O     2.674000000    -1.555000000     4.374000000
H     3.476000000    -2.078000000     4.346000000
H     2.832000000    -0.841000000     3.756000000
O     0.532000000     0.894000000     7.343000000
H     0.998000000     1.628000000     6.942000000
H     0.922000000     0.116000000     6.945000000
O     1.219000000     3.961000000     0.533000000
H     0.290000000     3.852000000     0.329000000
H     1.326000000     3.547000000     1.389000000
O     5.503000000    -1.090000000    -0.591000000
H     5.115000000    -0.220000000    -0.687000000
H     5.140000000    -1.425000000     0.229000000
O    -2.509000000     1.724000000     5.339000000
H    -2.124000000     0.859000000     5.200000000
H    -2.588000000     2.096000000     4.461000000
O     3.699000000    -5.290000000    -0.427000000
H     4.569000000    -5.689000000    -0.407000000
H     3.646000000    -4.788000000     0.386000000
O    -1.633000000     4.178000000     0.440000000
H    -2.374000000     4.065000000    -0.156000000
H    -1.603000000     5.120000000     0.607000000
O     4.455000000    -0.008000000    -5.990000000
H     4.072000000    -0.196000000    -5.133000000
H     4.244000000     0.912000000    -6.149000000
O    -1.590000000    -0.489000000     3.927000000
H    -0.941000000    -1.181000000     4.054000000
H    -2.138000000    -0.804000000     3.208000000
O    -0.338000000    -2.858000000    -6.792000000
H    -0.127000000    -2.072000000    -7.296000000
H     0.444000000    -3.022000000    -6.265000000
O    -6.349000000     1.364000000    -3.070000000
H    -6.592000000     2.015000000    -2.412000000
H    -5.392000000     1.357000000    -3.057000000
O    -1.964000000     5.651000000    -2.686000000
H    -1.952000000     6.476000000    -3.172000000
H    -1.179000000     5.684000000    -2.139000000
O    -0.877000000     3.555000000    -3.977000000
H    -1.261000000     2.681000000    -3.903000000
H    -1.523000000     4.135000000    -3.575000000
O    -0.121000000    -2.658000000     3.813000000
H    -0.057000000    -3.588000000     4.030000000
H     0.782000000    -2.340000000     3.854000000
O     1.570000000     2.717000000     3.075000000
H     2.419000000     2.284000000     2.985000000
H     1.177000000     2.316000000     3.850000000
O     4.613000000    -1.085000000     2.174000000
H     5.019000000    -1.284000000     3.018000000
H     4.933000000    -0.210000000     1.955000000
O    -0.816000000    -4.285000000     6.860000000
H    -1.753000000    -4.103000000     6.794000000
H    -0.577000000    -4.632000000     6.001000000
