158
-2995.48151
C     0.649000000    -0.941000000    -0.949000000
H     1.099000000    -1.695000000    -1.590000000
C     0.983000000    -0.764000000     0.397000000
H     1.737000000    -1.408000000     0.842000000
C     0.258000000     0.157000000     1.244000000
H     0.604000000     0.204000000     2.273000000
C    -0.750000000     0.863000000     0.702000000
H    -1.476000000     1.436000000     1.273000000
C    -1.002000000     0.773000000    -0.671000000
H    -1.706000000     1.389000000    -1.225000000
C    -0.326000000    -0.117000000    -1.527000000
C    -0.570000000    -0.263000000    -3.023000000
O    -1.529000000     0.179000000    -3.543000000
O     0.189000000    -0.938000000    -3.707000000
O    -0.908000000     2.315000000     7.350000000
H     0.021000000     2.223000000     7.139000000
H    -1.298000000     1.484000000     7.080000000
O    -4.097000000     3.872000000    -3.652000000
H    -4.076000000     3.638000000    -2.724000000
H    -4.168000000     4.826000000    -3.657000000
O     4.314000000     1.873000000     3.001000000
H     3.933000000     1.102000000     2.580000000
H     4.443000000     2.496000000     2.286000000
O    -4.643000000     2.457000000     4.255000000
H    -4.864000000     2.109000000     3.391000000
H    -4.050000000     1.806000000     4.631000000
O    -3.898000000    -0.823000000    -2.502000000
H    -3.091000000    -0.374000000    -2.754000000
H    -3.776000000    -1.034000000    -1.577000000
O    -3.095000000    -2.616000000    -0.567000000
H    -2.413000000    -2.601000000     0.105000000
H    -2.639000000    -2.880000000    -1.366000000
O    -5.054000000     0.754000000     1.342000000
H    -4.602000000     0.347000000     2.081000000
H    -4.771000000     1.668000000     1.363000000
O    -4.756000000     1.015000000    -4.741000000
H    -4.467000000     0.272000000    -4.212000000
H    -4.387000000     1.780000000    -4.300000000
O     3.169000000     1.453000000    -0.151000000
H     3.371000000     2.223000000     0.381000000
H     2.290000000     1.195000000     0.125000000
O    -0.024000000    -4.953000000    -6.291000000
H     0.360000000    -5.771000000    -5.975000000
H     0.289000000    -4.289000000    -5.677000000
O    -3.092000000    -0.728000000     3.148000000
H    -2.911000000    -1.216000000     2.345000000
H    -2.916000000    -1.352000000     3.852000000
O     5.504000000    -1.429000000    -3.481000000
H     4.827000000    -1.095000000    -2.893000000
H     6.227000000    -1.671000000    -2.902000000
O     0.164000000     4.604000000     5.729000000
H    -0.396000000     3.830000000     5.674000000
H    -0.447000000     5.334000000     5.835000000
O    -4.007000000     2.415000000    -1.085000000
H    -4.309000000     3.119000000    -0.511000000
H    -3.387000000     1.920000000    -0.549000000
O     3.503000000     3.854000000     1.111000000
H     4.184000000     4.501000000     0.925000000
H     2.682000000     4.336000000     1.011000000
O     5.509000000    -3.116000000     1.698000000
H     6.196000000    -2.990000000     1.044000000
H     5.980000000    -3.337000000     2.501000000
O     4.116000000     3.054000000     5.273000000
H     4.773000000     3.742000000     5.385000000
H     4.200000000     2.791000000     4.356000000
O     1.480000000     2.917000000    -3.843000000
H     1.683000000     3.632000000    -3.240000000
H     0.583000000     3.090000000    -4.127000000
O    -1.804000000    -3.177000000     2.020000000
H    -1.918000000    -3.548000000     2.895000000
H    -0.866000000    -3.258000000     1.846000000
O    -2.505000000     1.305000000    -7.119000000
H    -3.299000000     1.834000000    -7.044000000
H    -2.589000000     0.648000000    -6.428000000
O     3.856000000     2.058000000    -2.631000000
H     3.031000000     2.078000000    -3.116000000
H     3.595000000     1.950000000    -1.717000000
O     1.327000000     2.597000000    -7.180000000
H     1.489000000     2.026000000    -6.429000000
H     1.635000000     3.458000000    -6.898000000
O     5.892000000     0.598000000     5.088000000
H     5.616000000     0.459000000     5.994000000
H     5.210000000     1.155000000     4.713000000
O     2.203000000     0.535000000    -4.966000000
H     2.161000000     1.374000000    -4.507000000
H     1.692000000    -0.063000000    -4.420000000
O     0.731000000    -4.253000000     2.377000000
H     0.576000000    -5.103000000     1.966000000
H     1.571000000    -4.353000000     2.826000000
O     3.872000000    -0.101000000     6.972000000
H     3.520000000    -0.741000000     6.354000000
H     3.792000000    -0.523000000     7.827000000
O    -3.629000000    -1.851000000    -7.603000000
H    -3.192000000    -1.530000000    -8.392000000
H    -2.922000000    -1.965000000    -6.968000000
O    -6.089000000    -1.747000000    -3.740000000
H    -6.744000000    -1.126000000    -3.421000000
H    -5.260000000    -1.420000000    -3.392000000
O    -1.613000000    -1.493000000    -5.757000000
H    -0.750000000    -1.463000000    -6.171000000
H    -1.511000000    -0.980000000    -4.956000000
O    -2.851000000    -3.183000000    -3.531000000
H    -2.375000000    -3.205000000    -4.361000000
H    -3.165000000    -2.282000000    -3.457000000
O     3.109000000    -4.566000000     0.168000000
H     2.608000000    -4.173000000     0.883000000
H     3.765000000    -5.108000000     0.606000000
O    -3.642000000     3.309000000     1.644000000
H    -4.311000000     3.827000000     2.090000000
H    -2.812000000     3.668000000     1.957000000
O    -0.281000000    -3.748000000    -1.140000000
H    -0.271000000    -3.556000000    -2.078000000
H     0.641000000    -3.730000000    -0.882000000
O     0.267000000    -3.507000000    -4.112000000
H     1.210000000    -3.630000000    -4.221000000
H     0.130000000    -2.569000000    -4.250000000
O     2.855000000    -1.617000000     4.484000000
H     1.905000000    -1.635000000     4.374000000
H     3.132000000    -2.519000000     4.325000000
O     1.471000000     1.523000000     6.403000000
H     1.952000000     2.147000000     5.860000000
H     2.149000000     0.964000000     6.784000000
O     4.046000000    -1.325000000    -0.945000000
H     3.822000000    -0.486000000    -0.543000000
H     4.017000000    -1.952000000    -0.222000000
O    -3.468000000     1.070000000     6.635000000
H    -2.884000000     0.477000000     6.162000000
H    -3.029000000     1.920000000     6.596000000
O     3.200000000    -3.841000000    -2.705000000
H     3.762000000    -3.076000000    -2.827000000
H     3.122000000    -3.932000000    -1.756000000
O    -1.292000000     4.458000000     2.468000000
H    -1.010000000     5.224000000     1.967000000
H    -0.511000000     4.184000000     2.948000000
O    -1.575000000     0.339000000     5.086000000
H    -0.780000000    -0.192000000     5.126000000
H    -1.875000000     0.253000000     4.181000000
O     0.933000000    -1.648000000    -6.349000000
H     1.432000000    -0.922000000    -5.974000000
H     1.320000000    -2.432000000    -5.959000000
O    -6.666000000     0.821000000    -1.923000000
H    -7.251000000     0.879000000    -1.168000000
H    -5.834000000     0.517000000    -1.560000000
O    -1.397000000     2.815000000    -4.398000000
H    -1.490000000     1.929000000    -4.047000000
H    -2.211000000     3.256000000    -4.155000000
O    -0.311000000    -6.052000000     0.049000000
H    -1.162000000    -6.421000000    -0.188000000
H    -0.274000000    -5.217000000    -0.417000000
O    -0.127000000    -1.803000000     4.458000000
H    -0.373000000    -2.466000000     3.813000000
H     0.340000000    -2.291000000     5.137000000
O     3.780000000    -0.699000000     2.151000000
H     4.460000000    -1.372000000     2.145000000
H     3.433000000    -0.717000000     3.043000000
O     0.688000000    -3.468000000     6.439000000
H     0.236000000    -4.201000000     6.857000000
H     0.720000000    -2.790000000     7.113000000
