158
-3028.26758
C     1.125000000    -0.020000000    -0.871000000
H     2.056000000     0.132000000    -1.410000000
C     1.149000000     0.392000000     0.492000000
H     2.096000000     0.667000000     0.948000000
C    -0.052000000     0.313000000     1.183000000
H    -0.078000000     0.538000000     2.306000000
C    -1.248000000    -0.051000000     0.560000000
H    -2.113000000    -0.155000000     1.209000000
C    -1.217000000    -0.480000000    -0.773000000
H    -2.155000000    -0.825000000    -1.201000000
C    -0.023000000    -0.477000000    -1.531000000
C     0.010000000    -0.748000000    -3.020000000
O    -1.009000000    -1.160000000    -3.489000000
O     1.004000000    -0.628000000    -3.665000000
O    -4.586000000    -3.148000000     2.361000000
H    -4.718000000    -2.607000000     3.139000000
H    -4.989000000    -2.649000000     1.651000000
O     4.069000000     0.578000000     3.837000000
H     4.156000000     1.282000000     3.195000000
H     4.030000000    -0.222000000     3.313000000
O    -0.849000000    -5.167000000     0.883000000
H    -0.863000000    -4.501000000     1.570000000
H    -0.348000000    -4.768000000     0.172000000
O    -4.687000000    -4.312000000    -4.820000000
H    -5.173000000    -3.776000000    -5.447000000
H    -3.857000000    -3.850000000    -4.703000000
O    -4.336000000     1.131000000    -2.699000000
H    -4.415000000     1.952000000    -2.212000000
H    -5.187000000     0.707000000    -2.594000000
O     3.386000000     1.894000000    -2.503000000
H     3.641000000     0.997000000    -2.286000000
H     3.217000000     1.873000000    -3.445000000
O    -1.682000000     1.367000000    -3.827000000
H    -2.531000000     1.363000000    -3.385000000
H    -1.261000000     0.555000000    -3.543000000
O     1.516000000    -3.689000000     3.959000000
H     2.267000000    -3.923000000     3.414000000
H     0.847000000    -3.404000000     3.337000000
O     4.709000000    -0.303000000    -0.376000000
H     5.658000000    -0.394000000    -0.461000000
H     4.542000000    -0.403000000     0.561000000
O    -0.692000000    -2.561000000     2.475000000
H    -1.336000000    -2.235000000     3.103000000
H    -0.514000000    -1.813000000     1.904000000
O     5.554000000     0.107000000    -3.348000000
H     6.127000000     0.173000000    -2.584000000
H     5.640000000     0.954000000    -3.786000000
O     2.082000000     3.791000000     0.899000000
H     1.676000000     3.209000000     0.257000000
H     1.946000000     4.670000000     0.546000000
O    -4.024000000    -5.356000000    -2.381000000
H    -4.304000000    -4.885000000    -3.166000000
H    -4.370000000    -4.837000000    -1.654000000
O     1.539000000    -1.777000000     5.818000000
H     1.468000000    -2.329000000     5.039000000
H     1.473000000    -0.883000000     5.484000000
O    -1.603000000     4.382000000    -0.523000000
H    -1.418000000     4.404000000     0.416000000
H    -0.826000000     3.979000000    -0.911000000
O     2.494000000    -3.164000000    -4.132000000
H     2.913000000    -2.979000000    -3.291000000
H     1.729000000    -2.589000000    -4.150000000
O     3.909000000     4.459000000    -3.737000000
H     3.235000000     5.115000000    -3.555000000
H     3.443000000     3.623000000    -3.704000000
O    -3.814000000     2.020000000     3.495000000
H    -4.657000000     1.590000000     3.351000000
H    -3.616000000     2.443000000     2.660000000
O     4.957000000     3.818000000    -0.819000000
H     4.263000000     3.457000000    -1.371000000
H     5.708000000     3.246000000    -0.974000000
O     2.729000000     2.213000000    -5.164000000
H     2.528000000     1.278000000    -5.203000000
H     2.418000000     2.560000000    -6.000000000
O    -2.038000000    -0.648000000     6.757000000
H    -2.397000000     0.153000000     7.138000000
H    -1.933000000    -1.241000000     7.502000000
O    -2.189000000     4.839000000     2.691000000
H    -2.069000000     5.728000000     3.023000000
H    -1.611000000     4.301000000     3.233000000
O     3.931000000    -2.312000000    -6.102000000
H     3.681000000    -2.803000000    -5.319000000
H     3.927000000    -2.962000000    -6.804000000
O    -1.137000000    -5.450000000    -2.050000000
H    -0.447000000    -6.085000000    -1.858000000
H    -1.749000000    -5.534000000    -1.319000000
O    -3.469000000    -1.691000000    -3.039000000
H    -2.549000000    -1.662000000    -3.301000000
H    -3.896000000    -1.036000000    -3.592000000
O    -2.501000000    -3.173000000     5.437000000
H    -3.451000000    -3.212000000     5.331000000
H    -2.339000000    -2.315000000     5.831000000
O     1.407000000     0.707000000     4.686000000
H     2.141000000     0.797000000     4.077000000
H     1.741000000     1.051000000     5.515000000
O     2.251000000    -0.287000000    -6.118000000
H     1.654000000    -0.326000000    -5.371000000
H     2.842000000    -1.029000000    -5.991000000
O     2.350000000     5.498000000     3.531000000
H     2.421000000     5.025000000     4.360000000
H     2.140000000     4.822000000     2.887000000
O    -2.956000000    -0.811000000    -5.737000000
H    -2.463000000    -0.783000000    -4.917000000
H    -2.393000000    -1.300000000    -6.338000000
O    -0.675000000    -1.277000000    -7.323000000
H    -0.757000000    -0.778000000    -8.136000000
H     0.237000000    -1.154000000    -7.058000000
O    -0.586000000     3.106000000     5.361000000
H    -0.300000000     2.197000000     5.276000000
H     0.205000000     3.584000000     5.611000000
O     3.132000000    -2.270000000    -1.719000000
H     3.946000000    -2.644000000    -1.383000000
H     3.282000000    -1.324000000    -1.709000000
O     4.110000000     2.574000000     1.994000000
H     3.311000000     3.038000000     1.743000000
H     4.609000000     2.500000000     1.180000000
O    -0.414000000     3.441000000    -4.824000000
H    -0.878000000     2.629000000    -4.619000000
H    -0.072000000     3.305000000    -5.707000000
O     2.903000000    -4.332000000     1.408000000
H     2.864000000    -5.273000000     1.579000000
H     2.204000000    -4.175000000     0.774000000
O    -4.998000000    -1.063000000     0.707000000
H    -4.239000000    -0.485000000     0.645000000
H    -5.624000000    -0.707000000     0.076000000
O     2.323000000     1.564000000     7.268000000
H     2.321000000     2.457000000     7.612000000
H     3.171000000     1.208000000     7.532000000
O    -3.622000000     2.498000000     0.789000000
H    -4.317000000     2.605000000     0.140000000
H    -2.915000000     3.063000000     0.478000000
O    -1.938000000    -0.268000000     4.178000000
H    -1.890000000    -0.177000000     5.129000000
H    -2.500000000     0.454000000     3.896000000
O    -4.772000000    -3.104000000    -1.092000000
H    -4.728000000    -2.635000000    -0.259000000
H    -4.397000000    -2.496000000    -1.730000000
O     4.070000000    -1.487000000     2.073000000
H     3.305000000    -2.046000000     2.211000000
H     4.642000000    -2.001000000     1.502000000
O    -1.428000000    -3.997000000    -4.327000000
H    -1.100000000    -3.105000000    -4.442000000
H    -1.119000000    -4.256000000    -3.459000000
O    -4.592000000     1.463000000    -5.581000000
H    -4.187000000     0.733000000    -6.048000000
H    -3.919000000     1.758000000    -4.967000000
O    -1.863000000    -4.048000000    -7.004000000
H    -1.782000000    -4.244000000    -6.071000000
H    -1.233000000    -3.344000000    -7.158000000
O     0.685000000     3.140000000    -1.414000000
H     0.753000000     2.190000000    -1.316000000
H     0.923000000     3.305000000    -2.326000000
O     0.805000000    -3.247000000    -0.338000000
H     1.527000000    -2.869000000    -0.840000000
H     0.172000000    -2.533000000    -0.254000000
O    -3.250000000     2.857000000     5.946000000
H    -3.643000000     2.575000000     5.120000000
H    -2.326000000     2.994000000     5.738000000
