158
-3033.31651
C     0.857000000    -1.170000000    -0.296000000
H     1.609000000    -1.941000000    -0.443000000
C     0.803000000    -0.430000000     0.874000000
H     1.466000000    -0.665000000     1.703000000
C     0.014000000     0.707000000     1.058000000
H     0.021000000     1.327000000     1.988000000
C    -0.813000000     1.010000000    -0.003000000
H    -1.380000000     1.935000000     0.064000000
C    -0.877000000     0.267000000    -1.193000000
H    -1.559000000     0.577000000    -1.981000000
C    -0.023000000    -0.858000000    -1.380000000
C    -0.047000000    -1.727000000    -2.586000000
O    -0.785000000    -1.300000000    -3.485000000
O     0.600000000    -2.716000000    -2.689000000
O    -2.953000000     3.085000000     6.584000000
H    -2.267000000     3.566000000     6.120000000
H    -3.395000000     2.580000000     5.902000000
O    -2.163000000    -1.773000000     0.943000000
H    -2.611000000    -1.273000000     1.626000000
H    -1.349000000    -1.294000000     0.790000000
O     2.096000000    -0.759000000     4.485000000
H     3.043000000    -0.646000000     4.411000000
H     1.970000000    -1.707000000     4.523000000
O     4.609000000     4.527000000     2.137000000
H     4.561000000     5.470000000     2.298000000
H     3.886000000     4.350000000     1.535000000
O    -2.770000000    -5.777000000     0.440000000
H    -3.508000000    -5.192000000     0.269000000
H    -2.136000000    -5.571000000    -0.247000000
O    -5.402000000    -4.376000000    -4.609000000
H    -5.909000000    -4.140000000    -5.385000000
H    -4.760000000    -3.671000000    -4.519000000
O    -5.499000000     0.932000000    -3.116000000
H    -5.773000000     0.352000000    -2.406000000
H    -4.736000000     1.393000000    -2.768000000
O     3.499000000     0.085000000     7.156000000
H     2.960000000    -0.048000000     6.376000000
H     3.937000000     0.922000000     7.005000000
O     2.096000000     2.010000000    -2.745000000
H     1.444000000     2.145000000    -3.433000000
H     2.904000000     1.812000000    -3.217000000
O    -1.791000000     1.173000000    -4.400000000
H    -2.077000000     0.620000000    -5.127000000
H    -1.173000000     0.628000000    -3.913000000
O    -0.183000000    -4.016000000     2.203000000
H    -0.599000000    -3.359000000     1.644000000
H     0.387000000    -4.507000000     1.611000000
O     1.782000000     5.022000000     1.516000000
H     1.312000000     4.905000000     2.341000000
H     1.367000000     4.405000000     0.913000000
O     3.964000000    -0.472000000    -5.929000000
H     3.438000000    -1.134000000    -5.481000000
H     3.663000000     0.360000000    -5.564000000
O     4.892000000     1.367000000    -0.288000000
H     4.502000000     0.852000000     0.418000000
H     5.669000000     1.763000000     0.106000000
O    -1.193000000     6.443000000    -2.676000000
H    -2.078000000     6.556000000    -3.021000000
H    -1.163000000     5.531000000    -2.388000000
O    -3.962000000    -2.725000000     5.142000000
H    -3.526000000    -2.458000000     4.333000000
H    -3.744000000    -2.037000000     5.770000000
O    -1.638000000     4.191000000    -0.955000000
H    -1.819000000     4.489000000    -0.063000000
H    -0.705000000     3.975000000    -0.951000000
O     2.253000000    -4.698000000    -3.044000000
H     2.851000000    -4.199000000    -2.489000000
H     1.508000000    -4.113000000    -3.181000000
O    -4.327000000     1.889000000     1.149000000
H    -3.748000000     1.189000000     1.454000000
H    -4.190000000     1.916000000     0.202000000
O     0.461000000     2.949000000    -4.614000000
H     0.007000000     3.514000000    -5.239000000
H     0.030000000     2.099000000    -4.701000000
O     2.132000000    -7.160000000    -4.801000000
H     1.654000000    -6.882000000    -5.582000000
H     2.598000000    -6.375000000    -4.513000000
O    -3.270000000    -0.210000000     6.557000000
H    -2.502000000     0.362000000     6.531000000
H    -3.163000000    -0.718000000     7.360000000
O    -2.223000000     4.720000000     1.702000000
H    -3.140000000     4.873000000     1.928000000
H    -1.736000000     5.350000000     2.233000000
O     2.626000000    -2.854000000    -5.504000000
H     2.834000000    -3.158000000    -4.620000000
H     1.744000000    -2.490000000    -5.431000000
O    -0.519000000    -6.832000000    -3.894000000
H    -0.021000000    -7.280000000    -4.577000000
H    -1.199000000    -7.458000000    -3.643000000
O    -4.312000000    -3.792000000    -1.090000000
H    -3.708000000    -3.881000000    -1.827000000
H    -4.083000000    -2.951000000    -0.693000000
O    -0.473000000    -0.113000000     4.284000000
H     0.372000000    -0.564000000     4.260000000
H    -0.674000000    -0.032000000     5.216000000
O     0.365000000    -1.606000000    -5.857000000
H    -0.308000000    -1.310000000    -6.470000000
H    -0.074000000    -1.616000000    -5.007000000
O     0.524000000     4.481000000     3.940000000
H     0.504000000     4.364000000     4.889000000
H     0.253000000     5.388000000     3.804000000
O    -3.247000000    -2.529000000    -4.296000000
H    -2.622000000    -1.969000000    -3.835000000
H    -2.701000000    -3.112000000    -4.824000000
O    -1.564000000    -0.512000000    -7.422000000
H    -1.706000000    -0.551000000    -8.368000000
H    -2.435000000    -0.363000000    -7.055000000
O    -1.486000000     2.370000000     3.631000000
H    -1.046000000     1.544000000     3.834000000
H    -0.774000000     2.999000000     3.516000000
O     4.418000000    -3.564000000    -1.711000000
H     5.195000000    -3.942000000    -1.299000000
H     4.750000000    -2.819000000    -2.212000000
O     4.911000000    -0.081000000     4.357000000
H     5.555000000     0.576000000     4.624000000
H     5.367000000    -0.612000000     3.704000000
O    -2.596000000     3.578000000    -5.323000000
H    -3.118000000     4.104000000    -4.718000000
H    -2.469000000     2.745000000    -4.869000000
O     1.627000000    -5.529000000     0.519000000
H     2.406000000    -6.073000000     0.409000000
H     1.051000000    -5.787000000    -0.200000000
O    -4.319000000    -0.534000000    -0.721000000
H    -3.566000000    -0.656000000    -0.143000000
H    -5.044000000    -0.960000000    -0.265000000
O    -0.560000000     0.758000000     7.065000000
H    -0.375000000     1.596000000     7.489000000
H    -0.286000000     0.100000000     7.704000000
O    -3.931000000     2.962000000    -1.185000000
H    -4.683000000     3.533000000    -1.026000000
H    -3.191000000     3.561000000    -1.282000000
O    -3.279000000    -0.264000000     2.966000000
H    -3.992000000    -0.036000000     3.562000000
H    -2.651000000     0.453000000     3.057000000
O     1.396000000    -3.309000000     4.354000000
H     1.870000000    -4.125000000     4.194000000
H     0.634000000    -3.358000000     3.776000000
O    -1.037000000    -4.359000000    -4.625000000
H    -0.461000000    -3.808000000    -4.096000000
H    -0.861000000    -5.250000000    -4.323000000
O    -4.004000000    -0.152000000    -6.273000000
H    -4.087000000    -0.493000000    -5.382000000
H    -4.904000000    -0.104000000    -6.596000000
O    -0.645000000    -4.007000000    -7.714000000
H    -0.639000000    -3.854000000    -6.769000000
H    -0.825000000    -3.147000000    -8.095000000
O     0.933000000     3.253000000    -0.613000000
H     0.482000000     2.513000000    -0.206000000
H     1.481000000     2.856000000    -1.290000000
O    -0.736000000    -5.207000000    -1.599000000
H    -0.408000000    -5.690000000    -2.357000000
H    -0.282000000    -4.365000000    -1.637000000
O    -4.134000000     2.448000000     3.996000000
H    -4.526000000     2.619000000     3.140000000
H    -3.190000000     2.496000000     3.841000000
O     3.604000000     3.765000000     4.714000000
H     2.953000000     4.450000000     4.563000000
H     3.600000000     3.249000000     3.908000000
