158
-3032.59745
C     0.014000000    -1.337000000    -0.544000000
H     0.345000000    -2.299000000    -0.929000000
C     0.690000000    -0.873000000     0.551000000
H     1.444000000    -1.534000000     0.970000000
C     0.530000000     0.354000000     1.051000000
H     1.145000000     0.753000000     1.850000000
C    -0.216000000     1.242000000     0.278000000
H    -0.347000000     2.244000000     0.678000000
C    -0.886000000     0.825000000    -0.841000000
H    -1.638000000     1.515000000    -1.215000000
C    -0.719000000    -0.503000000    -1.351000000
C    -1.412000000    -0.909000000    -2.651000000
O    -2.077000000    -0.074000000    -3.230000000
O    -1.420000000    -2.072000000    -2.993000000
O     3.037000000     3.567000000     0.145000000
H     2.694000000     2.842000000    -0.378000000
H     3.081000000     3.220000000     1.036000000
O    -2.717000000    -3.247000000    -5.393000000
H    -1.812000000    -3.556000000    -5.434000000
H    -2.718000000    -2.603000000    -4.685000000
O    -1.898000000    -4.172000000    -1.277000000
H    -1.713000000    -3.586000000    -2.010000000
H    -2.380000000    -3.630000000    -0.653000000
O    -2.404000000    -1.509000000    -7.841000000
H    -2.480000000    -1.843000000    -6.947000000
H    -2.081000000    -0.615000000    -7.736000000
O     0.945000000     2.544000000     6.826000000
H     0.485000000     3.219000000     7.325000000
H     1.844000000     2.575000000     7.154000000
O    -1.671000000    -2.092000000     2.842000000
H    -1.449000000    -1.685000000     2.004000000
H    -2.376000000    -2.703000000     2.632000000
O    -3.049000000     1.012000000     6.058000000
H    -2.644000000     1.452000000     6.805000000
H    -2.725000000     1.490000000     5.294000000
O     3.703000000     0.487000000     3.501000000
H     3.274000000    -0.317000000     3.792000000
H     4.414000000     0.620000000     4.128000000
O    -1.231000000    -5.224000000     1.697000000
H    -0.495000000    -5.348000000     1.097000000
H    -1.862000000    -4.707000000     1.197000000
O     1.463000000    -5.010000000     3.383000000
H     1.447000000    -4.871000000     2.436000000
H     0.553000000    -4.891000000     3.657000000
O     1.709000000    -4.328000000    -6.693000000
H     1.318000000    -3.901000000    -5.930000000
H     1.351000000    -3.853000000    -7.443000000
O     0.273000000    -6.848000000    -1.157000000
H    -0.197000000    -6.501000000    -1.915000000
H    -0.117000000    -7.709000000    -1.008000000
O     1.604000000    -0.382000000    -3.378000000
H     2.350000000    -0.311000000    -3.974000000
H     1.902000000     0.035000000    -2.570000000
O    -2.210000000     0.334000000    -5.779000000
H    -1.290000000     0.528000000    -5.957000000
H    -2.253000000     0.229000000    -4.828000000
O    -3.643000000    -3.375000000     0.971000000
H    -4.285000000    -2.873000000     0.470000000
H    -4.021000000    -4.252000000     1.034000000
O     2.493000000     0.918000000    -0.971000000
H     1.780000000     0.610000000    -0.412000000
H     3.230000000     0.347000000    -0.755000000
O    -1.523000000     6.178000000    -2.027000000
H    -1.489000000     5.591000000    -2.782000000
H    -2.454000000     6.239000000    -1.813000000
O     3.179000000    -3.372000000    -0.473000000
H     3.439000000    -2.659000000     0.111000000
H     3.886000000    -3.425000000    -1.116000000
O     1.239000000    -1.873000000     3.873000000
H     0.514000000    -2.196000000     3.338000000
H     1.938000000    -2.513000000     3.741000000
O     1.290000000    -4.980000000     0.616000000
H     1.372000000    -4.295000000    -0.047000000
H     1.118000000    -5.778000000     0.116000000
O     0.732000000    -3.069000000    -4.240000000
H    -0.046000000    -2.751000000    -3.781000000
H     1.405000000    -2.415000000    -4.051000000
O    -3.377000000     2.506000000    -3.007000000
H    -3.252000000     3.181000000    -3.674000000
H    -2.784000000     1.800000000    -3.265000000
O    -5.295000000    -2.467000000    -1.046000000
H    -4.879000000    -2.329000000    -1.897000000
H    -5.828000000    -1.684000000    -0.910000000
O    -1.484000000     1.104000000     3.923000000
H    -0.944000000     0.618000000     3.299000000
H    -1.600000000     1.964000000     3.520000000
O     1.601000000     2.809000000    -2.902000000
H     1.655000000     2.334000000    -2.073000000
H     1.769000000     2.144000000    -3.570000000
O    -5.947000000     0.830000000    -4.456000000
H    -6.588000000     1.490000000    -4.719000000
H    -5.114000000     1.301000000    -4.436000000
O    -4.946000000     5.619000000    -1.958000000
H    -4.811000000     4.776000000    -1.527000000
H    -5.786000000     5.930000000    -1.620000000
O    -1.072000000     3.952000000     3.853000000
H    -0.358000000     3.712000000     4.444000000
H    -0.660000000     4.508000000     3.192000000
O    -0.691000000     4.136000000    -3.556000000
H    -0.600000000     3.853000000    -4.465000000
H    -0.127000000     3.541000000    -3.062000000
O     4.654000000     3.223000000     4.717000000
H     4.362000000     3.551000000     3.866000000
H     5.409000000     2.671000000     4.514000000
O     0.132000000     5.880000000     2.201000000
H    -0.176000000     5.313000000     1.494000000
H    -0.084000000     6.765000000     1.910000000
O     4.909000000    -2.352000000     4.370000000
H     5.635000000    -2.753000000     4.849000000
H     4.785000000    -2.917000000     3.607000000
O    -3.022000000     2.574000000     1.343000000
H    -3.398000000     3.073000000     2.068000000
H    -3.330000000     1.679000000     1.483000000
O     4.027000000    -0.791000000     0.701000000
H     3.812000000    -0.346000000     1.521000000
H     4.938000000    -0.550000000     0.529000000
O    -0.073000000    -0.322000000     6.204000000
H     0.206000000    -0.723000000     5.380000000
H     0.187000000     0.595000000     6.124000000
O     2.432000000     4.402000000     3.099000000
H     1.758000000     4.904000000     2.642000000
H     1.944000000     3.799000000     3.659000000
O    -3.955000000    -0.638000000     3.893000000
H    -3.515000000    -0.037000000     4.495000000
H    -3.242000000    -1.081000000     3.433000000
O     4.405000000    -1.056000000     6.579000000
H     4.235000000    -1.592000000     5.804000000
H     5.345000000    -0.877000000     6.545000000
O    -0.897000000    -5.602000000    -4.410000000
H    -0.458000000    -4.789000000    -4.163000000
H    -1.739000000    -5.568000000    -3.956000000
O    -6.331000000    -3.473000000    -4.396000000
H    -6.544000000    -2.706000000    -4.928000000
H    -5.537000000    -3.224000000    -3.924000000
O     1.727000000     6.567000000    -1.447000000
H     0.795000000     6.674000000    -1.636000000
H     1.820000000     5.643000000    -1.214000000
O    -4.766000000     3.174000000    -0.529000000
H    -4.513000000     2.933000000    -1.420000000
H    -3.952000000     3.123000000    -0.027000000
O    -0.901000000     4.439000000    -0.031000000
H    -1.185000000     4.954000000    -0.786000000
H    -1.627000000     3.836000000     0.134000000
O    -4.208000000    -5.843000000    -1.507000000
H    -4.393000000    -5.857000000    -0.568000000
H    -3.478000000    -5.231000000    -1.598000000
O     1.328000000     2.045000000     4.115000000
H     2.013000000     1.417000000     3.884000000
H     1.312000000     2.040000000     5.072000000
O    -6.557000000    -0.131000000    -1.522000000
H    -7.331000000    -0.665000000    -1.702000000
H    -6.389000000     0.331000000    -2.344000000
O    -4.393000000    -1.399000000    -3.491000000
H    -4.991000000    -0.652000000    -3.532000000
H    -3.521000000    -1.005000000    -3.444000000
O    -3.462000000     2.166000000    -7.700000000
H    -2.992000000     1.686000000    -7.018000000
H    -4.118000000     2.676000000    -7.225000000
