158
-3036.28427
C     0.195000000    -0.191000000    -1.471000000
H     0.398000000    -0.411000000    -2.516000000
C     1.229000000     0.029000000    -0.537000000
H     2.276000000     0.065000000    -0.827000000
C     0.885000000     0.200000000     0.776000000
H     1.652000000     0.258000000     1.502000000
C    -0.447000000     0.040000000     1.214000000
H    -0.692000000     0.257000000     2.250000000
C    -1.429000000    -0.246000000     0.310000000
H    -2.470000000    -0.153000000     0.610000000
C    -1.106000000    -0.312000000    -1.058000000
C    -2.172000000    -0.310000000    -2.137000000
O    -3.237000000    -0.838000000    -1.765000000
O    -2.033000000     0.272000000    -3.181000000
O     1.045000000    -2.837000000     4.013000000
H     0.692000000    -3.445000000     4.663000000
H     0.556000000    -2.026000000     4.153000000
O     7.243000000     0.737000000     1.349000000
H     7.556000000    -0.058000000     1.781000000
H     6.617000000     1.115000000     1.966000000
O     2.635000000     3.308000000    -0.369000000
H     2.219000000     3.874000000    -1.020000000
H     2.249000000     3.578000000     0.464000000
O    -0.665000000    -1.801000000    -4.693000000
H    -1.315000000    -1.122000000    -4.512000000
H    -0.530000000    -1.756000000    -5.639000000
O    -0.204000000    -4.407000000    -3.192000000
H    -0.216000000    -3.643000000    -3.769000000
H     0.615000000    -4.326000000    -2.704000000
O     1.133000000     1.237000000    -4.991000000
H     2.002000000     1.472000000    -5.317000000
H     1.133000000     1.528000000    -4.079000000
O     2.534000000     0.884000000     5.479000000
H     2.989000000     1.417000000     4.827000000
H     2.162000000     0.159000000     4.978000000
O     4.068000000    -2.344000000    -1.505000000
H     4.446000000    -3.219000000    -1.417000000
H     4.809000000    -1.750000000    -1.383000000
O    -5.750000000    -3.446000000     0.381000000
H    -6.412000000    -3.750000000     1.002000000
H    -5.437000000    -4.243000000    -0.046000000
O     1.386000000    -3.065000000    -0.955000000
H     2.320000000    -2.996000000    -0.761000000
H     1.006000000    -2.265000000    -0.592000000
O     0.946000000     3.957000000     4.381000000
H     1.228000000     4.113000000     3.480000000
H     0.662000000     3.043000000     4.389000000
O     0.688000000    -4.502000000     1.930000000
H     0.522000000    -4.278000000     2.845000000
H     0.194000000    -3.851000000     1.431000000
O    -2.418000000    -3.360000000     3.229000000
H    -2.506000000    -3.105000000     2.311000000
H    -2.959000000    -2.730000000     3.705000000
O     1.935000000     2.984000000     7.583000000
H     2.100000000     2.531000000     6.756000000
H     1.408000000     2.369000000     8.092000000
O    -3.993000000    -0.258000000    -5.086000000
H    -3.335000000     0.201000000    -4.564000000
H    -4.048000000    -1.128000000    -4.690000000
O    -3.613000000    -1.111000000     4.178000000
H    -2.672000000    -1.053000000     4.342000000
H    -3.842000000    -0.265000000     3.794000000
O     6.333000000    -0.820000000    -1.241000000
H     6.397000000    -0.207000000    -1.974000000
H     7.113000000    -0.646000000    -0.714000000
O    -2.958000000     2.906000000     1.657000000
H    -2.735000000     3.836000000     1.612000000
H    -2.207000000     2.460000000     1.265000000
O    -1.369000000     2.331000000     4.253000000
H    -1.873000000     2.359000000     5.066000000
H    -1.937000000     2.744000000     3.603000000
O     3.056000000    -1.164000000     3.228000000
H     3.752000000    -1.728000000     2.891000000
H     2.372000000    -1.771000000     3.512000000
O     2.028000000    -2.070000000    -3.741000000
H     1.138000000    -1.959000000    -4.076000000
H     1.910000000    -2.335000000    -2.829000000
O     2.569000000    -4.468000000    -5.498000000
H     2.423000000    -3.864000000    -6.226000000
H     2.576000000    -3.910000000    -4.721000000
O    -8.242000000     0.369000000    -1.533000000
H    -8.350000000    -0.566000000    -1.705000000
H    -7.295000000     0.509000000    -1.558000000
O     5.270000000    -2.508000000     2.203000000
H     5.226000000    -2.134000000     1.323000000
H     4.908000000    -3.389000000     2.106000000
O     4.388000000    -1.006000000    -4.430000000
H     3.602000000    -1.543000000    -4.337000000
H     4.231000000    -0.250000000    -3.864000000
O     4.835000000     4.101000000     4.395000000
H     5.734000000     3.937000000     4.112000000
H     4.307000000     3.964000000     3.609000000
O     3.648000000     1.382000000    -2.447000000
H     3.555000000     1.544000000    -1.508000000
H     3.770000000     2.252000000    -2.828000000
O    -5.612000000     0.712000000    -1.741000000
H    -5.350000000     1.619000000    -1.899000000
H    -4.910000000     0.189000000    -2.128000000
O    -1.546000000    -4.904000000    -0.611000000
H    -2.108000000    -4.315000000    -0.108000000
H    -1.001000000    -4.321000000    -1.140000000
O    -6.980000000    -2.279000000    -4.151000000
H    -6.027000000    -2.360000000    -4.115000000
H    -7.301000000    -2.962000000    -3.563000000
O    -1.701000000     2.340000000    -4.747000000
H    -2.034000000     1.833000000    -4.006000000
H    -1.042000000     1.774000000    -5.148000000
O    -4.712000000     2.972000000    -2.953000000
H    -4.796000000     2.827000000    -3.896000000
H    -3.768000000     2.970000000    -2.794000000
O    -0.197000000     3.029000000    -0.124000000
H    -0.507000000     2.932000000    -1.025000000
H     0.169000000     2.173000000     0.097000000
O     4.723000000     1.186000000     3.526000000
H     4.657000000     1.812000000     2.805000000
H     4.316000000     0.388000000     3.188000000
O    -1.926000000     4.376000000    -2.935000000
H    -1.132000000     4.898000000    -2.821000000
H    -1.759000000     3.855000000    -3.720000000
O    -0.247000000    -0.239000000     4.858000000
H    -0.484000000    -0.486000000     5.752000000
H    -0.575000000     0.655000000     4.762000000
O     4.874000000     3.227000000     1.668000000
H     4.195000000     3.076000000     1.010000000
H     5.610000000     3.587000000     1.173000000
O    -4.670000000     1.110000000     2.702000000
H    -4.767000000     0.459000000     2.008000000
H    -4.140000000     1.803000000     2.309000000
O     6.726000000     0.275000000     4.772000000
H     5.914000000     0.637000000     4.418000000
H     7.145000000     1.015000000     5.212000000
O    -7.320000000    -4.187000000    -2.058000000
H    -7.744000000    -4.500000000    -1.259000000
H    -6.383000000    -4.268000000    -1.879000000
O     0.219000000    -0.739000000    -6.963000000
H     0.657000000    -0.299000000    -6.234000000
H     0.272000000    -0.114000000    -7.686000000
O    -5.428000000    -0.617000000     0.600000000
H    -5.494000000    -0.169000000    -0.243000000
H    -5.355000000    -1.544000000     0.373000000
O    -2.898000000    -4.970000000    -3.512000000
H    -3.198000000    -4.997000000    -4.420000000
H    -1.945000000    -5.039000000    -3.572000000
O     1.256000000     4.603000000     1.563000000
H     0.766000000     4.035000000     0.969000000
H     0.909000000     5.480000000     1.396000000
O    -2.967000000    -2.951000000     0.578000000
H    -2.973000000    -2.167000000     0.029000000
H    -3.892000000    -3.167000000     0.698000000
O    -4.296000000    -2.638000000    -3.428000000
H    -3.827000000    -3.453000000    -3.248000000
H    -3.862000000    -1.985000000    -2.878000000
O    -2.229000000     4.309000000    -6.453000000
H    -2.081000000     3.536000000    -5.910000000
H    -3.153000000     4.522000000    -6.323000000
O    -5.625000000     1.846000000    -5.296000000
H    -5.153000000     1.013000000    -5.292000000
H    -6.455000000     1.649000000    -5.731000000
