158
-3024.44962
C     0.797000000     0.451000000    -1.148000000
H     1.524000000     0.890000000    -1.826000000
C     1.275000000     0.022000000     0.098000000
H     2.327000000     0.006000000     0.369000000
C     0.381000000    -0.366000000     1.063000000
H     0.760000000    -0.755000000     2.048000000
C    -1.003000000    -0.168000000     0.885000000
H    -1.693000000    -0.268000000     1.719000000
C    -1.503000000     0.071000000    -0.375000000
H    -2.581000000     0.122000000    -0.504000000
C    -0.585000000     0.393000000    -1.383000000
C    -1.115000000     0.601000000    -2.789000000
O    -2.206000000     1.076000000    -2.960000000
O    -0.337000000     0.484000000    -3.729000000
O    -0.519000000    -2.727000000    -0.934000000
H    -0.551000000    -1.896000000    -0.460000000
H     0.069000000    -2.561000000    -1.671000000
O     2.252000000     2.099000000     2.672000000
H     2.161000000     1.593000000     3.479000000
H     3.179000000     2.334000000     2.639000000
O    -2.370000000    -1.120000000    -8.083000000
H    -2.547000000    -0.921000000    -7.164000000
H    -2.277000000    -0.263000000    -8.500000000
O     4.582000000     1.143000000    -0.102000000
H     4.219000000     0.941000000     0.761000000
H     5.385000000     0.625000000    -0.152000000
O     5.483000000    -4.017000000     1.952000000
H     6.116000000    -3.514000000     1.439000000
H     5.066000000    -4.598000000     1.315000000
O     1.450000000     2.462000000    -4.645000000
H     0.993000000     1.698000000    -4.294000000
H     2.264000000     2.506000000    -4.143000000
O     3.450000000     0.952000000    -7.091000000
H     2.792000000     0.600000000    -6.491000000
H     3.321000000     1.899000000    -7.059000000
O    -1.012000000    -1.213000000     3.995000000
H    -1.883000000    -1.016000000     4.339000000
H    -0.583000000    -0.360000000     3.926000000
O     4.709000000     2.007000000     5.818000000
H     4.883000000     1.099000000     5.571000000
H     4.742000000     2.005000000     6.775000000
O     1.645000000    -2.796000000     6.740000000
H     2.213000000    -2.409000000     7.406000000
H     0.767000000    -2.487000000     6.965000000
O    -0.416000000    -3.611000000     3.343000000
H    -1.204000000    -3.755000000     2.820000000
H    -0.574000000    -2.779000000     3.789000000
O    -5.947000000     2.194000000    -4.999000000
H    -5.812000000     1.856000000    -4.114000000
H    -5.575000000     3.075000000    -4.978000000
O     5.289000000     0.913000000     2.687000000
H     6.026000000     1.238000000     3.204000000
H     4.710000000     0.502000000     3.328000000
O     4.921000000    -2.604000000    -1.768000000
H     4.005000000    -2.805000000    -1.576000000
H     5.007000000    -2.756000000    -2.709000000
O     1.695000000     3.103000000     6.857000000
H     1.612000000     2.294000000     7.362000000
H     2.256000000     2.868000000     6.119000000
O     1.413000000    -4.985000000     4.781000000
H     1.559000000    -4.324000000     5.458000000
H     0.784000000    -4.581000000     4.184000000
O     1.438000000    -0.517000000    -5.955000000
H     0.713000000    -0.369000000    -5.347000000
H     1.015000000    -0.775000000    -6.774000000
O     0.894000000    -2.141000000    -3.287000000
H     1.049000000    -1.197000000    -3.324000000
H     0.885000000    -2.418000000    -4.203000000
O     3.828000000    -5.329000000     0.397000000
H     3.191000000    -5.050000000    -0.261000000
H     3.952000000    -6.263000000     0.230000000
O    -2.952000000    -3.834000000    -3.682000000
H    -2.555000000    -3.452000000    -2.899000000
H    -2.619000000    -4.732000000    -3.706000000
O    -5.534000000    -1.989000000    -4.797000000
H    -4.893000000    -2.669000000    -4.590000000
H    -5.481000000    -1.379000000    -4.061000000
O     1.712000000     0.599000000     5.067000000
H     2.591000000     0.234000000     5.177000000
H     1.239000000     0.325000000     5.853000000
O     4.699000000     4.937000000    -3.306000000
H     4.308000000     4.149000000    -2.929000000
H     5.131000000     5.367000000    -2.568000000
O    -4.859000000     0.053000000     4.637000000
H    -4.917000000     0.613000000     3.863000000
H    -5.274000000    -0.768000000     4.371000000
O     1.782000000     4.089000000     0.615000000
H     2.051000000     3.571000000     1.374000000
H     0.864000000     3.856000000     0.479000000
O     3.219000000    -2.031000000     2.880000000
H     3.644000000    -2.521000000     2.177000000
H     2.884000000    -2.703000000     3.473000000
O    -2.710000000    -3.991000000     0.677000000
H    -1.980000000    -3.735000000     0.114000000
H    -3.393000000    -3.345000000     0.493000000
O     1.043000000     3.323000000    -7.211000000
H     1.143000000     3.157000000    -6.274000000
H     1.794000000     3.870000000    -7.439000000
O    -5.078000000     0.580000000    -0.317000000
H    -4.901000000     0.236000000     0.558000000
H    -5.648000000     1.334000000    -0.167000000
O     2.118000000    -3.875000000    -1.416000000
H     1.889000000    -3.234000000    -2.088000000
H     1.681000000    -3.559000000    -0.625000000
O     4.137000000    -0.034000000    -2.916000000
H     4.239000000    -0.385000000    -2.031000000
H     4.195000000    -0.801000000    -3.486000000
O    -2.901000000     3.338000000    -1.886000000
H    -2.836000000     2.468000000    -2.280000000
H    -3.821000000     3.420000000    -1.637000000
O    -4.615000000    -2.444000000    -0.327000000
H    -4.534000000    -1.603000000    -0.778000000
H    -5.293000000    -2.912000000    -0.814000000
O     3.242000000     2.543000000    -2.305000000
H     3.211000000     2.627000000    -1.352000000
H     3.784000000     1.770000000    -2.460000000
O    -2.363000000    -0.154000000    -5.700000000
H    -3.227000000    -0.168000000    -5.290000000
H    -1.808000000     0.310000000    -5.073000000
O    -0.977000000     1.736000000    -7.897000000
H    -1.252000000     1.741000000    -6.981000000
H    -0.217000000     2.318000000    -7.922000000
O    -0.467000000     2.171000000     3.550000000
H     0.183000000     1.638000000     3.093000000
H    -0.078000000     2.339000000     4.408000000
O    -2.719000000     5.836000000    -2.813000000
H    -2.758000000     4.914000000    -2.558000000
H    -2.237000000     6.260000000    -2.103000000
O    -1.957000000     2.957000000    -5.154000000
H    -1.874000000     2.388000000    -4.389000000
H    -1.570000000     3.787000000    -4.878000000
O     4.278000000    -0.407000000     4.752000000
H     4.946000000    -1.009000000     5.079000000
H     3.696000000    -0.958000000     4.228000000
O    -1.148000000     3.391000000     0.270000000
H    -1.694000000     3.527000000    -0.505000000
H    -1.102000000     2.440000000     0.365000000
O     1.035000000     4.813000000    -3.101000000
H     0.613000000     4.722000000    -2.247000000
H     1.574000000     4.027000000    -3.187000000
O    -3.497000000     4.333000000     1.647000000
H    -2.583000000     4.155000000     1.427000000
H    -3.656000000     5.217000000     1.316000000
O    -0.477000000    -3.170000000    -5.709000000
H    -1.034000000    -3.452000000    -6.434000000
H    -1.065000000    -3.132000000    -4.955000000
O     0.505000000     0.590000000     7.451000000
H    -0.434000000     0.412000000     7.400000000
H     0.690000000     0.632000000     8.390000000
O     1.082000000    -4.895000000     1.347000000
H     1.995000000    -5.056000000     1.587000000
H     0.688000000    -4.529000000     2.139000000
O    -4.541000000     0.039000000    -3.035000000
H    -4.646000000     0.251000000    -2.108000000
H    -3.611000000     0.186000000    -3.211000000
O    -5.101000000     2.713000000     3.077000000
H    -4.434000000     3.087000000     2.501000000
H    -5.930000000     2.902000000     2.637000000
