158
-3046.86635
C     1.150000000     0.404000000    -0.788000000
H     2.090000000     0.721000000    -1.232000000
C     1.142000000    -0.574000000     0.141000000
H     2.050000000    -1.136000000     0.345000000
C    -0.022000000    -0.847000000     0.844000000
H    -0.046000000    -1.539000000     1.700000000
C    -1.156000000    -0.135000000     0.538000000
H    -2.056000000    -0.411000000     1.082000000
C    -1.209000000     0.716000000    -0.539000000
H    -2.190000000     1.091000000    -0.821000000
C    -0.027000000     1.081000000    -1.160000000
C     0.076000000     2.295000000    -2.094000000
O    -0.955000000     2.628000000    -2.677000000
O     1.127000000     2.831000000    -2.282000000
O     2.230000000    -4.581000000    -1.977000000
H     1.582000000    -4.002000000    -2.378000000
H     1.742000000    -5.377000000    -1.767000000
O     2.523000000    -0.877000000    -3.849000000
H     3.440000000    -1.124000000    -3.732000000
H     2.463000000    -0.600000000    -4.763000000
O    -1.999000000    -0.779000000    -3.632000000
H    -1.587000000    -0.198000000    -4.271000000
H    -2.655000000    -0.233000000    -3.199000000
O     5.552000000     0.748000000     1.546000000
H     5.136000000     1.478000000     2.006000000
H     5.319000000     0.880000000     0.627000000
O    -5.871000000     0.880000000     1.068000000
H    -5.144000000     1.467000000     0.861000000
H    -5.455000000     0.112000000     1.460000000
O     3.845000000     3.367000000    -0.008000000
H     3.250000000     3.313000000    -0.756000000
H     3.376000000     2.930000000     0.703000000
O     4.773000000     2.427000000    -5.740000000
H     5.569000000     1.958000000    -5.989000000
H     4.586000000     2.128000000    -4.851000000
O     0.623000000    -3.754000000     5.150000000
H     1.042000000    -3.175000000     4.514000000
H    -0.108000000    -4.147000000     4.672000000
O     4.085000000    -2.879000000    -0.454000000
H     3.369000000    -3.314000000    -0.918000000
H     4.587000000    -3.594000000    -0.064000000
O    -0.667000000     0.634000000    -5.929000000
H     0.158000000     0.962000000    -5.572000000
H    -1.155000000     1.422000000    -6.167000000
O     4.038000000     1.921000000    -2.924000000
H     4.056000000     1.243000000    -2.248000000
H     3.111000000     2.134000000    -3.025000000
O     0.547000000    -2.395000000    -2.947000000
H    -0.167000000    -2.267000000    -3.571000000
H     1.169000000    -1.694000000    -3.147000000
O     1.879000000    -2.232000000     3.239000000
H     2.638000000    -2.029000000     3.786000000
H     1.579000000    -1.381000000     2.920000000
O    -5.866000000     3.253000000    -4.713000000
H    -4.995000000     3.053000000    -4.368000000
H    -6.100000000     2.484000000    -5.232000000
O    -1.596000000     4.950000000    -4.048000000
H    -1.026000000     4.336000000    -3.584000000
H    -2.395000000     4.979000000    -3.522000000
O    -0.193000000    -5.042000000     1.065000000
H    -0.907000000    -4.436000000     0.863000000
H     0.153000000    -5.297000000     0.210000000
O    -5.277000000     2.108000000    -1.690000000
H    -4.772000000     1.314000000    -1.512000000
H    -6.164000000     1.792000000    -1.866000000
O     2.960000000     2.793000000     2.515000000
H     2.221000000     3.401000000     2.474000000
H     3.710000000     3.344000000     2.738000000
O    -4.570000000     0.403000000    -5.456000000
H    -4.059000000    -0.106000000    -6.086000000
H    -3.941000000     1.016000000    -5.077000000
O     0.154000000    -7.816000000     2.139000000
H     0.027000000    -6.931000000     1.795000000
H    -0.403000000    -8.368000000     1.591000000
O     3.853000000     6.314000000    -0.863000000
H     2.943000000     6.408000000    -0.581000000
H     3.801000000     5.811000000    -1.676000000
O     4.535000000    -2.079000000     2.057000000
H     4.345000000    -1.141000000     2.101000000
H     4.248000000    -2.340000000     1.182000000
O     1.495000000     6.808000000    -4.224000000
H     1.703000000     7.459000000    -4.894000000
H     0.556000000     6.649000000    -4.328000000
O    -4.777000000    -1.360000000     1.970000000
H    -4.158000000    -1.935000000     1.520000000
H    -4.803000000    -1.693000000     2.867000000
O     4.839000000    -0.332000000    -1.069000000
H     4.219000000    -1.060000000    -1.017000000
H     5.245000000    -0.425000000    -1.930000000
O    -1.227000000     7.250000000    -1.440000000
H    -1.444000000     6.388000000    -1.083000000
H    -2.068000000     7.704000000    -1.496000000
O    -2.976000000    -3.555000000     0.887000000
H    -2.536000000    -3.123000000     0.155000000
H    -3.409000000    -4.312000000     0.494000000
O     1.217000000     2.466000000    -5.340000000
H     1.659000000     3.270000000    -5.613000000
H     0.884000000     2.662000000    -4.464000000
O    -4.393000000    -0.877000000    -2.029000000
H    -4.900000000    -0.896000000    -2.841000000
H    -3.882000000    -1.687000000    -2.047000000
O    -2.026000000    -2.429000000    -1.328000000
H    -1.115000000    -2.372000000    -1.042000000
H    -2.043000000    -1.971000000    -2.169000000
O     1.221000000     5.272000000    -0.547000000
H     1.204000000     4.671000000    -1.292000000
H     0.783000000     6.061000000    -0.867000000
O    -3.447000000     2.403000000    -3.562000000
H    -2.569000000     2.354000000    -3.185000000
H    -4.035000000     2.339000000    -2.809000000
O     3.553000000    -0.704000000     4.951000000
H     4.285000000    -0.096000000     5.051000000
H     3.885000000    -1.536000000     5.288000000
O    -2.343000000    -1.826000000     4.262000000
H    -2.183000000    -2.640000000     3.784000000
H    -1.862000000    -1.931000000     5.083000000
O     2.261000000    -4.686000000     2.240000000
H     1.549000000    -4.560000000     1.612000000
H     2.273000000    -3.878000000     2.753000000
O     5.575000000    -0.444000000    -3.749000000
H     6.321000000     0.047000000    -4.092000000
H     5.449000000    -1.156000000    -4.376000000
O    -1.522000000    -4.436000000     3.330000000
H    -2.307000000    -4.660000000     2.829000000
H    -0.810000000    -4.483000000     2.692000000
O    -4.220000000     2.893000000     2.446000000
H    -3.309000000     2.796000000     2.169000000
H    -4.313000000     2.288000000     3.182000000
O    -2.471000000     3.503000000    -6.552000000
H    -2.408000000     4.133000000    -7.270000000
H    -1.984000000     3.909000000    -5.834000000
O    -3.989000000     5.359000000    -2.250000000
H    -4.505000000     4.554000000    -2.296000000
H    -3.458000000     5.259000000    -1.460000000
O    -3.187000000     0.851000000     4.056000000
H    -2.300000000     1.209000000     4.095000000
H    -3.060000000    -0.091000000     3.940000000
O    -1.368000000     3.469000000     1.823000000
H    -1.138000000     2.752000000     2.414000000
H    -1.476000000     4.227000000     2.397000000
O    -0.448000000    -5.539000000    -1.976000000
H    -0.311000000    -5.422000000    -2.916000000
H    -0.274000000    -6.468000000    -1.823000000
O    -1.109000000    -1.956000000     7.025000000
H    -1.283000000    -1.624000000     7.906000000
H    -0.159000000    -1.897000000     6.930000000
O     1.671000000     0.828000000     3.775000000
H     2.266000000     0.318000000     4.324000000
H     2.241000000     1.438000000     3.306000000
O    -1.933000000     4.471000000    -0.738000000
H    -1.671000000     4.244000000     0.154000000
H    -1.720000000     3.695000000    -1.256000000
O     2.768000000     4.670000000    -3.056000000
H     2.090000000     4.026000000    -2.850000000
H     2.295000000     5.391000000    -3.471000000
O    -0.683000000     2.274000000     4.250000000
H    -0.356000000     2.911000000     4.886000000
H     0.071000000     1.714000000     4.064000000
