158
-3043.67000
C     1.193000000     0.522000000    -0.687000000
H     2.127000000     0.691000000    -1.217000000
C     1.210000000    -0.124000000     0.538000000
H     2.146000000    -0.402000000     1.016000000
C    -0.035000000    -0.584000000     1.065000000
H    -0.097000000    -1.248000000     1.929000000
C    -1.232000000    -0.248000000     0.537000000
H    -2.220000000    -0.501000000     0.912000000
C    -1.233000000     0.443000000    -0.693000000
H    -2.185000000     0.639000000    -1.180000000
C    -0.053000000     0.818000000    -1.355000000
C    -0.049000000     1.515000000    -2.698000000
O    -1.113000000     1.945000000    -3.082000000
O     1.032000000     1.628000000    -3.284000000
O     2.086000000    -3.582000000     2.442000000
H     2.614000000    -2.813000000     2.661000000
H     1.326000000    -3.523000000     3.021000000
O     3.037000000    -3.277000000    -2.013000000
H     3.937000000    -3.085000000    -1.750000000
H     2.719000000    -3.889000000    -1.350000000
O     6.115000000     0.886000000     2.322000000
H     5.926000000     1.542000000     2.994000000
H     7.013000000     1.076000000     2.048000000
O    -1.627000000    -0.208000000     4.238000000
H    -1.862000000    -0.781000000     3.508000000
H    -2.015000000     0.638000000     4.012000000
O     6.317000000    -0.891000000    -0.133000000
H     5.966000000    -0.168000000     0.387000000
H     7.073000000    -0.516000000    -0.585000000
O    -0.362000000    -4.824000000    -1.152000000
H    -0.304000000    -4.138000000    -1.817000000
H     0.513000000    -4.856000000    -0.764000000
O    -0.942000000    -0.492000000     6.956000000
H    -1.157000000    -1.374000000     7.260000000
H    -1.017000000    -0.542000000     6.003000000
O    -1.827000000    -4.178000000     0.988000000
H    -2.039000000    -5.090000000     1.185000000
H    -1.325000000    -4.220000000     0.174000000
O     5.919000000    -3.346000000    -1.613000000
H     6.553000000    -3.094000000    -2.285000000
H     5.748000000    -2.538000000    -1.130000000
O     5.473000000     2.407000000    -5.321000000
H     5.282000000     1.512000000    -5.601000000
H     4.806000000     2.600000000    -4.662000000
O     0.085000000     6.106000000    -6.567000000
H    -0.536000000     6.718000000    -6.173000000
H    -0.018000000     5.301000000    -6.060000000
O     3.205000000     0.086000000    -4.020000000
H     3.778000000     0.421000000    -3.331000000
H     2.399000000     0.594000000    -3.929000000
O     2.181000000    -4.896000000     0.061000000
H     3.135000000    -4.977000000     0.033000000
H     2.000000000    -4.489000000     0.908000000
O    -3.107000000     3.522000000    -1.984000000
H    -2.610000000     4.295000000    -1.714000000
H    -2.468000000     2.810000000    -1.970000000
O    -5.240000000     0.101000000    -3.884000000
H    -4.304000000     0.003000000    -4.060000000
H    -5.308000000     0.918000000    -3.391000000
O    -0.123000000    -1.691000000    -4.815000000
H    -0.691000000    -2.459000000    -4.857000000
H     0.147000000    -1.643000000    -3.898000000
O    -0.974000000     1.578000000    -8.421000000
H    -0.304000000     1.700000000    -9.094000000
H    -0.479000000     1.398000000    -7.621000000
O     1.174000000    -4.414000000     5.945000000
H     0.956000000    -3.955000000     5.134000000
H     1.986000000    -4.003000000     6.242000000
O    -5.566000000    -1.669000000     2.165000000
H    -6.484000000    -1.929000000     2.086000000
H    -5.328000000    -1.366000000     1.289000000
O     4.627000000    -1.031000000     3.557000000
H     4.224000000    -0.472000000     4.221000000
H     5.044000000    -0.420000000     2.949000000
O     5.221000000     1.176000000    -2.503000000
H     5.536000000     0.647000000    -1.770000000
H     5.037000000     2.033000000    -2.119000000
O    -6.184000000    -1.791000000    -1.913000000
H    -6.667000000    -1.191000000    -2.481000000
H    -5.440000000    -1.276000000    -1.599000000
O     4.583000000    -0.160000000    -6.140000000
H     3.940000000    -0.359000000    -5.460000000
H     4.525000000    -0.898000000    -6.748000000
O    -3.064000000     4.201000000    -4.611000000
H    -3.014000000     3.872000000    -3.714000000
H    -3.372000000     5.103000000    -4.519000000
O     4.884000000    -5.068000000     2.853000000
H     5.311000000    -5.918000000     2.959000000
H     3.951000000    -5.254000000     2.964000000
O    -0.405000000     4.109000000    -4.777000000
H    -0.344000000     3.251000000    -4.357000000
H    -1.327000000     4.352000000    -4.694000000
O    -2.440000000     0.141000000    -4.890000000
H    -1.722000000    -0.466000000    -5.070000000
H    -2.044000000     0.829000000    -4.355000000
O    -3.037000000     3.664000000    -7.361000000
H    -2.542000000     2.930000000    -7.724000000
H    -3.002000000     3.531000000    -6.413000000
O    -5.559000000     2.607000000    -1.161000000
H    -5.180000000     1.972000000    -0.554000000
H    -4.804000000     3.048000000    -1.549000000
O     0.363000000    -2.213000000    -2.175000000
H     1.235000000    -2.569000000    -2.346000000
H     0.378000000    -1.979000000    -1.247000000
O     3.236000000     3.326000000     0.118000000
H     4.022000000     3.697000000     0.519000000
H     2.584000000     3.330000000     0.819000000
O     0.324000000     0.839000000    -6.144000000
H     0.322000000     1.106000000    -5.225000000
H     0.842000000     0.034000000    -6.158000000
O     3.877000000    -3.099000000     5.696000000
H     4.028000000    -2.330000000     5.146000000
H     4.404000000    -3.789000000     5.293000000
O    -3.865000000     1.611000000     3.592000000
H    -4.479000000     1.076000000     4.095000000
H    -3.551000000     2.266000000     4.216000000
O    -0.269000000    -2.850000000     4.057000000
H    -1.221000000    -2.926000000     3.998000000
H    -0.106000000    -1.907000000     4.097000000
O    -0.069000000    -6.176000000     2.511000000
H     0.013000000    -6.579000000     3.376000000
H     0.380000000    -5.336000000     2.595000000
O    -2.749000000    -2.460000000     2.945000000
H    -3.693000000    -2.317000000     2.876000000
H    -2.517000000    -2.918000000     2.136000000
O    -4.882000000    -4.160000000    -0.061000000
H    -4.056000000    -3.715000000     0.126000000
H    -5.275000000    -3.649000000    -0.768000000
O    -4.389000000    -0.613000000    -0.284000000
H    -3.897000000     0.035000000     0.220000000
H    -3.747000000    -0.984000000    -0.889000000
O    -5.404000000    -0.349000000     4.886000000
H    -5.571000000    -0.658000000     3.996000000
H    -6.272000000    -0.282000000     5.284000000
O    -1.427000000     6.396000000    -2.583000000
H    -0.534000000     6.132000000    -2.360000000
H    -1.844000000     6.568000000    -1.738000000
O     1.310000000     1.633000000     4.631000000
H     0.478000000     1.205000000     4.834000000
H     1.904000000     1.341000000     5.322000000
O     1.149000000     2.889000000     2.261000000
H     0.697000000     2.276000000     1.681000000
H     1.182000000     2.438000000     3.105000000
O     2.749000000     3.547000000    -3.668000000
H     2.187000000     2.783000000    -3.538000000
H     2.148000000     4.292000000    -3.651000000
O     1.005000000     5.501000000    -1.086000000
H     1.468000000     4.848000000    -0.562000000
H     1.656000000     5.806000000    -1.719000000
O     5.146000000     4.028000000    -2.582000000
H     4.301000000     4.050000000    -3.031000000
H     5.037000000     4.620000000    -1.838000000
O    -2.607000000    -2.427000000    -1.400000000
H    -3.112000000    -3.104000000    -1.851000000
H    -1.728000000    -2.495000000    -1.773000000
O    -3.859000000     1.845000000     0.926000000
H    -4.059000000     1.557000000     1.816000000
H    -3.206000000     2.536000000     1.038000000
