158
-3025.35389
C     1.097000000     0.454000000    -0.947000000
H     1.899000000     0.700000000    -1.638000000
C     1.299000000    -0.284000000     0.245000000
H     2.282000000    -0.693000000     0.466000000
C     0.228000000    -0.579000000     1.069000000
H     0.337000000    -1.050000000     2.044000000
C    -1.010000000    -0.075000000     0.751000000
H    -1.863000000    -0.249000000     1.401000000
C    -1.246000000     0.572000000    -0.467000000
H    -2.244000000     0.897000000    -0.749000000
C    -0.208000000     0.844000000    -1.333000000
C    -0.496000000     1.316000000    -2.704000000
O    -1.507000000     1.038000000    -3.312000000
O     0.354000000     1.999000000    -3.277000000
O    -0.806000000    -3.879000000     2.113000000
H     0.053000000    -3.827000000     1.695000000
H    -0.772000000    -3.226000000     2.812000000
O     1.064000000    -2.702000000    -5.382000000
H     0.816000000    -2.951000000    -4.491000000
H     0.861000000    -1.768000000    -5.434000000
O     0.041000000    -3.433000000    -2.963000000
H     0.783000000    -3.357000000    -2.363000000
H    -0.232000000    -4.348000000    -2.892000000
O     4.526000000    -0.011000000     1.177000000
H     4.083000000     0.837000000     1.141000000
H     5.362000000     0.174000000     1.604000000
O    -2.088000000     1.705000000     3.493000000
H    -2.554000000     0.898000000     3.274000000
H    -2.427000000     2.352000000     2.876000000
O     1.733000000    -5.762000000     4.579000000
H     2.198000000    -5.277000000     5.261000000
H     0.807000000    -5.597000000     4.756000000
O     5.372000000    -2.274000000    -0.066000000
H     5.518000000    -1.667000000    -0.791000000
H     5.044000000    -1.724000000     0.645000000
O     4.192000000    -0.469000000     4.464000000
H     5.099000000    -0.749000000     4.589000000
H     3.745000000    -0.741000000     5.266000000
O    -3.011000000    -5.058000000    -0.840000000
H    -2.750000000    -4.146000000    -0.707000000
H    -2.195000000    -5.553000000    -0.763000000
O     3.043000000    -3.834000000     6.032000000
H     2.915000000    -3.442000000     6.896000000
H     2.634000000    -3.217000000     5.426000000
O     2.775000000    -3.217000000    -1.711000000
H     3.033000000    -3.335000000    -2.625000000
H     3.517000000    -2.767000000    -1.308000000
O     4.955000000     2.969000000     0.767000000
H     4.014000000     3.101000000     0.878000000
H     5.301000000     2.947000000     1.659000000
O    -3.087000000     4.610000000    -0.062000000
H    -2.291000000     5.028000000     0.266000000
H    -2.974000000     4.592000000    -1.012000000
O     1.662000000     4.614000000    -7.355000000
H     1.151000000     5.325000000    -7.740000000
H     1.067000000     4.203000000    -6.728000000
O     1.972000000     0.108000000    -5.364000000
H     2.747000000     0.221000000    -4.813000000
H     1.313000000     0.679000000    -4.970000000
O     0.017000000    -6.283000000     0.452000000
H     0.339000000    -7.177000000     0.569000000
H     0.674000000    -5.735000000     0.882000000
O    -3.329000000     2.892000000    -3.531000000
H    -2.918000000     3.684000000    -3.185000000
H    -2.696000000     2.197000000    -3.354000000
O    -5.736000000     0.393000000    -4.668000000
H    -4.827000000     0.093000000    -4.656000000
H    -6.087000000     0.127000000    -3.818000000
O    -3.644000000     0.605000000    -7.068000000
H    -2.703000000     0.636000000    -6.895000000
H    -4.049000000     0.838000000    -6.233000000
O    -0.303000000    -3.919000000     6.212000000
H    -0.523000000    -3.073000000     5.822000000
H     0.257000000    -3.701000000     6.957000000
O    -6.275000000     0.756000000     3.147000000
H    -7.168000000     0.679000000     2.812000000
H    -5.939000000    -0.140000000     3.141000000
O     3.249000000    -2.396000000     2.682000000
H     3.277000000    -1.673000000     2.055000000
H     3.772000000    -2.090000000     3.423000000
O     3.992000000     0.252000000    -3.624000000
H     4.620000000    -0.282000000    -3.138000000
H     4.049000000     1.117000000    -3.219000000
O     1.051000000     0.413000000    -8.071000000
H     0.648000000     0.538000000    -7.212000000
H     1.981000000     0.586000000    -7.926000000
O    -3.396000000     4.040000000    -6.175000000
H    -3.767000000     3.636000000    -5.390000000
H    -3.223000000     4.946000000    -5.918000000
O     6.323000000     1.207000000    -1.136000000
H     5.678000000     1.894000000    -1.306000000
H     6.703000000     1.440000000    -0.288000000
O     0.014000000     3.423000000    -5.358000000
H    -0.777000000     3.943000000    -5.211000000
H     0.159000000     2.969000000    -4.528000000
O    -3.359000000    -0.820000000    -4.344000000
H    -2.806000000    -1.412000000    -4.853000000
H    -2.746000000    -0.337000000    -3.790000000
O    -2.209000000    -2.384000000    -0.902000000
H    -1.866000000    -2.164000000    -1.768000000
H    -1.628000000    -1.929000000    -0.292000000
O     1.399000000     5.226000000     0.451000000
H     1.989000000     5.897000000     0.793000000
H     1.770000000     4.400000000     0.763000000
O    -0.944000000     0.848000000    -6.073000000
H    -1.240000000     0.658000000    -5.183000000
H    -0.663000000     1.763000000    -6.042000000
O     1.821000000    -4.256000000     1.232000000
H     2.025000000    -3.939000000     0.352000000
H     2.350000000    -3.709000000     1.812000000
O    -4.386000000     2.438000000     2.219000000
H    -5.108000000     2.070000000     2.729000000
H    -4.706000000     3.294000000     1.934000000
O    -0.995000000    -2.116000000     4.220000000
H    -1.891000000    -1.975000000     3.915000000
H    -0.823000000    -1.379000000     4.805000000
O    -2.905000000    -5.580000000     2.549000000
H    -2.344000000    -5.905000000     3.254000000
H    -2.380000000    -4.906000000     2.117000000
O    -3.550000000    -1.351000000     3.673000000
H    -4.153000000    -1.237000000     2.938000000
H    -4.118000000    -1.492000000     4.430000000
O    -5.520000000    -1.571000000     1.650000000
H    -5.443000000    -2.518000000     1.761000000
H    -5.867000000    -1.461000000     0.764000000
O    -6.017000000    -0.632000000    -2.029000000
H    -5.683000000     0.181000000    -1.650000000
H    -5.302000000    -1.259000000    -1.919000000
O    -1.840000000     5.052000000    -2.842000000
H    -0.933000000     5.243000000    -2.603000000
H    -2.254000000     5.912000000    -2.916000000
O     2.776000000     1.696000000     3.352000000
H     3.425000000     0.997000000     3.439000000
H     2.435000000     1.817000000     4.239000000
O     2.314000000     2.833000000     0.845000000
H     1.801000000     2.276000000     0.260000000
H     2.347000000     2.348000000     1.669000000
O     2.395000000     4.207000000    -3.169000000
H     1.992000000     3.631000000    -3.819000000
H     1.710000000     4.838000000    -2.951000000
O     0.870000000    -1.359000000     6.712000000
H     1.629000000    -0.846000000     6.988000000
H     0.159000000    -0.721000000     6.649000000
O     0.614000000     5.775000000    -2.095000000
H     0.761000000     5.240000000    -1.315000000
H     1.227000000     6.505000000    -2.004000000
O     4.203000000     2.696000000    -1.950000000
H     3.555000000     3.295000000    -2.321000000
H     4.391000000     3.055000000    -1.083000000
O    -5.153000000    -3.220000000    -1.655000000
H    -4.984000000    -3.344000000    -2.589000000
H    -4.294000000    -3.032000000    -1.278000000
O    -4.856000000     1.751000000    -0.832000000
H    -4.772000000     1.865000000     0.115000000
H    -4.318000000     2.448000000    -1.206000000
O    -0.314000000     0.829000000     5.411000000
H     0.366000000     1.483000000     5.575000000
H    -0.892000000     1.240000000     4.769000000
