158
-3035.88488
C     1.005000000     0.523000000    -0.885000000
H     1.898000000     0.891000000    -1.383000000
C     1.158000000    -0.510000000     0.073000000
H     2.074000000    -1.094000000     0.083000000
C     0.065000000    -0.960000000     0.827000000
H     0.190000000    -1.704000000     1.558000000
C    -1.134000000    -0.278000000     0.674000000
H    -1.966000000    -0.527000000     1.328000000
C    -1.307000000     0.780000000    -0.261000000
H    -2.239000000     1.339000000    -0.284000000
C    -0.170000000     1.213000000    -0.986000000
C    -0.289000000     2.325000000    -1.961000000
O    -1.289000000     2.982000000    -2.034000000
O     0.593000000     2.510000000    -2.831000000
O     0.521000000    -3.727000000     4.189000000
H     0.997000000    -3.017000000     3.759000000
H     0.944000000    -4.525000000     3.873000000
O     0.064000000    -3.629000000    -4.223000000
H     0.700000000    -4.082000000    -3.670000000
H    -0.485000000    -3.142000000    -3.608000000
O    -4.402000000     2.694000000     0.638000000
H    -3.891000000     2.819000000     1.438000000
H    -4.108000000     3.393000000     0.054000000
O     3.505000000    -2.782000000    -1.587000000
H     3.564000000    -1.966000000    -2.083000000
H     2.566000000    -2.960000000    -1.530000000
O    -3.794000000    -1.869000000    -2.002000000
H    -3.975000000    -1.055000000    -2.471000000
H    -4.498000000    -1.934000000    -1.355000000
O     3.881000000    -1.481000000     5.857000000
H     4.068000000    -0.742000000     6.436000000
H     3.304000000    -1.119000000     5.185000000
O    -0.456000000     3.012000000     4.492000000
H     0.072000000     2.866000000     3.707000000
H    -1.361000000     2.941000000     4.189000000
O    -3.938000000    -0.666000000     3.290000000
H    -4.532000000    -1.114000000     3.892000000
H    -3.082000000    -1.058000000     3.464000000
O     1.664000000    -5.136000000    -2.047000000
H     0.971000000    -5.135000000    -1.387000000
H     2.397000000    -5.584000000    -1.624000000
O     2.616000000     6.442000000    -1.491000000
H     3.193000000     6.618000000    -0.748000000
H     2.373000000     7.308000000    -1.817000000
O    -3.675000000     6.636000000     0.976000000
H    -3.105000000     6.651000000     0.207000000
H    -4.508000000     6.990000000     0.664000000
O     0.951000000     1.471000000    -5.196000000
H     1.837000000     1.109000000    -5.215000000
H     0.865000000     1.848000000    -4.321000000
O     2.105000000    -3.671000000     1.587000000
H     2.369000000    -4.032000000     0.740000000
H     2.794000000    -3.949000000     2.191000000
O    -3.370000000     4.612000000    -1.081000000
H    -3.198000000     5.443000000    -1.524000000
H    -2.576000000     4.097000000    -1.219000000
O    -3.411000000     2.978000000    -4.025000000
H    -2.953000000     3.684000000    -4.481000000
H    -2.814000000     2.718000000    -3.324000000
O     3.177000000    -0.847000000    -3.540000000
H     2.770000000    -0.972000000    -4.397000000
H     3.782000000    -0.116000000    -3.666000000
O     4.585000000     3.614000000    -0.161000000
H     4.190000000     3.410000000    -1.008000000
H     5.284000000     4.235000000    -0.366000000
O    -0.310000000    -3.478000000     6.908000000
H    -0.147000000    -3.647000000     5.980000000
H    -0.694000000    -2.601000000     6.928000000
O     1.252000000     5.869000000    -4.738000000
H     0.524000000     6.442000000    -4.495000000
H     0.876000000     5.265000000    -5.378000000
O     0.822000000     1.243000000     6.447000000
H     0.433000000     2.037000000     6.082000000
H     1.515000000     1.009000000     5.830000000
O    -5.584000000     0.213000000     1.188000000
H    -5.218000000     1.062000000     0.939000000
H    -4.958000000    -0.141000000     1.819000000
O     3.929000000     0.051000000     2.090000000
H     3.914000000     0.032000000     1.134000000
H     4.616000000     0.681000000     2.307000000
O     3.910000000     1.721000000    -4.575000000
H     4.206000000     2.367000000    -3.933000000
H     4.557000000     1.770000000    -5.279000000
O     6.023000000    -3.305000000    -0.850000000
H     5.096000000    -3.073000000    -0.903000000
H     6.072000000    -4.186000000    -1.221000000
O     3.869000000    -4.586000000     3.244000000
H     4.255000000    -5.457000000     3.154000000
H     4.173000000    -4.276000000     4.097000000
O     0.314000000    -6.467000000     3.783000000
H    -0.483000000    -5.958000000     3.929000000
H     0.003000000    -7.356000000     3.611000000
O     3.342000000    -6.080000000    -0.102000000
H     4.280000000    -5.991000000     0.067000000
H     3.116000000    -6.943000000     0.245000000
O    -1.094000000     4.030000000    -4.902000000
H    -1.093000000     3.335000000    -5.560000000
H    -0.794000000     3.602000000    -4.100000000
O    -1.296000000     0.052000000    -4.419000000
H    -0.466000000     0.488000000    -4.615000000
H    -1.092000000    -0.532000000    -3.689000000
O    -6.048000000     4.014000000    -2.992000000
H    -5.907000000     4.490000000    -2.174000000
H    -5.198000000     3.620000000    -3.189000000
O    -0.271000000     8.420000000    -1.427000000
H     0.386000000     8.605000000    -2.098000000
H    -0.237000000     7.470000000    -1.315000000
O    -0.893000000    -1.869000000    -2.040000000
H    -0.533000000    -1.458000000    -1.254000000
H    -1.820000000    -2.001000000    -1.837000000
O     0.104000000     5.361000000    -1.625000000
H     1.046000000     5.368000000    -1.795000000
H    -0.229000000     4.635000000    -2.151000000
O     2.438000000     0.472000000     4.379000000
H     1.999000000     1.133000000     3.843000000
H     3.146000000     0.146000000     3.824000000
O    -4.760000000     1.544000000     5.094000000
H    -5.669000000     1.809000000     4.951000000
H    -4.543000000     1.010000000     4.330000000
O    -6.372000000     4.846000000    -0.284000000
H    -5.621000000     4.449000000     0.157000000
H    -6.413000000     5.735000000     0.068000000
O    -1.444000000    -4.005000000     1.736000000
H    -1.724000000    -4.713000000     1.157000000
H    -0.491000000    -3.992000000     1.655000000
O    -1.916000000    -2.086000000     3.881000000
H    -1.686000000    -2.736000000     3.217000000
H    -1.138000000    -2.026000000     4.436000000
O    -0.406000000     5.396000000     1.125000000
H     0.504000000     5.213000000     1.360000000
H    -0.432000000     5.297000000     0.173000000
O    -2.796000000     6.071000000    -5.312000000
H    -2.483000000     6.675000000    -4.639000000
H    -2.306000000     5.264000000    -5.156000000
O     1.356000000     2.211000000     2.688000000
H     1.052000000     1.801000000     1.879000000
H     1.864000000     2.968000000     2.397000000
O    -2.747000000     7.225000000    -1.525000000
H    -3.117000000     8.107000000    -1.485000000
H    -1.801000000     7.364000000    -1.570000000
O    -2.363000000     3.805000000     2.376000000
H    -2.697000000     4.536000000     2.896000000
H    -1.612000000     4.168000000     1.906000000
O     2.816000000     4.517000000     1.742000000
H     3.547000000     3.957000000     1.483000000
H     3.210000000     5.175000000     2.316000000
O     2.898000000     3.350000000    -6.815000000
H     2.730000000     3.481000000    -5.882000000
H     2.079000000     2.993000000    -7.158000000
O    -0.751000000    -1.028000000     6.327000000
H    -1.638000000    -0.746000000     6.551000000
H    -0.232000000    -0.224000000     6.346000000
O     2.818000000     3.837000000    -3.110000000
H     2.061000000     3.251000000    -3.123000000
H     2.523000000     4.600000000    -2.614000000
O    -2.818000000    -6.090000000     3.663000000
H    -2.647000000    -5.259000000     3.219000000
H    -3.327000000    -6.599000000     3.031000000
