158
-3017.37655
C     1.164000000     0.392000000     0.867000000
H     2.069000000     0.421000000     1.468000000
C     0.357000000    -0.758000000     0.990000000
H     0.564000000    -1.520000000     1.736000000
C    -0.744000000    -0.954000000     0.178000000
H    -1.369000000    -1.836000000     0.241000000
C    -1.093000000     0.041000000    -0.708000000
H    -2.017000000    -0.127000000    -1.255000000
C    -0.273000000     1.087000000    -0.880000000
H    -0.451000000     1.840000000    -1.643000000
C     0.891000000     1.343000000    -0.066000000
C     1.804000000     2.444000000    -0.410000000
O     1.447000000     3.383000000    -1.090000000
O     2.963000000     2.389000000    -0.052000000
O     0.334000000    -2.942000000     3.963000000
H    -0.566000000    -3.082000000     3.670000000
H     0.866000000    -3.455000000     3.354000000
O     1.921000000    -4.009000000    -3.323000000
H     1.504000000    -4.166000000    -4.169000000
H     2.851000000    -4.177000000    -3.478000000
O     6.402000000     0.710000000     0.989000000
H     7.170000000     0.141000000     0.928000000
H     5.782000000     0.343000000     0.359000000
O     2.451000000    -5.478000000     0.390000000
H     2.427000000    -5.221000000     1.311000000
H     2.118000000    -4.714000000    -0.081000000
O    -1.651000000    -3.950000000    -1.202000000
H    -1.361000000    -3.233000000    -1.765000000
H    -2.414000000    -3.601000000    -0.742000000
O     2.845000000    -1.527000000     4.070000000
H     2.844000000    -1.608000000     5.024000000
H     1.962000000    -1.786000000     3.807000000
O    -1.276000000    -0.582000000     4.946000000
H    -0.774000000    -1.371000000     5.147000000
H    -2.167000000    -0.897000000     4.795000000
O    -1.379000000    -6.333000000    -0.228000000
H    -1.518000000    -5.448000000    -0.567000000
H    -0.506000000    -6.306000000     0.162000000
O     2.505000000    -5.475000000     2.982000000
H     3.399000000    -5.163000000     3.122000000
H     2.032000000    -5.206000000     3.770000000
O     5.248000000     4.103000000    -0.779000000
H     5.185000000     4.855000000    -0.191000000
H     4.597000000     3.485000000    -0.449000000
O     1.855000000    -0.177000000    -3.295000000
H     1.908000000     0.779000000    -3.297000000
H     2.701000000    -0.464000000    -2.952000000
O    -0.787000000     7.412000000    -1.287000000
H    -0.792000000     6.454000000    -1.295000000
H    -1.712000000     7.656000000    -1.272000000
O    -0.831000000     4.554000000    -0.603000000
H    -1.296000000     3.978000000     0.005000000
H     0.023000000     4.139000000    -0.720000000
O    -0.116000000    -2.130000000    -2.762000000
H     0.512000000    -1.413000000    -2.683000000
H     0.342000000    -2.795000000    -3.275000000
O    -3.906000000     2.316000000    -3.648000000
H    -3.961000000     2.381000000    -4.601000000
H    -3.045000000     2.674000000    -3.433000000
O     4.151000000     0.007000000    -0.304000000
H     3.803000000     0.895000000    -0.222000000
H     4.192000000    -0.149000000    -1.247000000
O    -6.230000000     1.326000000    -2.443000000
H    -6.295000000     0.386000000    -2.614000000
H    -5.340000000     1.556000000    -2.709000000
O     0.578000000     0.797000000    -6.926000000
H     0.124000000     1.007000000    -6.110000000
H     0.671000000     1.639000000    -7.372000000
O    -1.820000000     4.671000000    -5.838000000
H    -1.924000000     4.623000000    -4.887000000
H    -2.326000000     5.442000000    -6.095000000
O     4.374000000    -1.857000000     1.710000000
H     4.078000000    -1.196000000     1.084000000
H     3.836000000    -1.707000000     2.488000000
O     5.656000000     4.932000000    -3.497000000
H     5.398000000     4.676000000    -2.611000000
H     5.722000000     4.105000000    -3.975000000
O    -6.520000000    -2.006000000    -0.878000000
H    -6.632000000    -1.603000000    -1.738000000
H    -7.062000000    -2.794000000    -0.910000000
O     0.453000000     4.034000000    -3.660000000
H     1.067000000     3.910000000    -2.936000000
H     1.010000000     4.157000000    -4.428000000
O    -0.340000000     1.554000000    -4.399000000
H    -0.074000000     2.473000000    -4.380000000
H    -0.198000000     1.245000000    -3.504000000
O     2.955000000     8.034000000    -1.822000000
H     2.491000000     7.392000000    -1.285000000
H     3.864000000     7.980000000    -1.526000000
O    -3.379000000    -7.015000000     1.575000000
H    -2.702000000    -6.533000000     1.100000000
H    -3.432000000    -6.580000000     2.426000000
O    -0.996000000     5.543000000     2.635000000
H    -1.631000000     5.802000000     1.968000000
H    -0.891000000     4.600000000     2.513000000
O     1.817000000    -3.069000000    -0.695000000
H     1.049000000    -2.656000000    -0.300000000
H     1.637000000    -3.060000000    -1.635000000
O     7.720000000     3.302000000    -0.355000000
H     7.434000000     2.894000000     0.462000000
H     6.941000000     3.750000000    -0.685000000
O    -5.473000000    -5.617000000    -0.390000000
H    -5.838000000    -5.511000000     0.489000000
H    -6.052000000    -5.103000000    -0.953000000
O     2.190000000     5.746000000    -0.297000000
H     2.999000000     5.524000000     0.165000000
H     1.896000000     4.917000000    -0.675000000
O    -4.101000000    -2.579000000    -4.648000000
H    -4.240000000    -2.586000000    -5.595000000
H    -3.312000000    -2.050000000    -4.525000000
O     5.361000000    -0.359000000     4.627000000
H     5.172000000     0.392000000     4.065000000
H     4.525000000    -0.819000000     4.702000000
O    -3.668000000    -1.908000000     4.852000000
H    -4.581000000    -1.628000000     4.917000000
H    -3.579000000    -2.591000000     5.516000000
O    -4.564000000    -1.178000000     1.798000000
H    -3.678000000    -0.937000000     2.070000000
H    -4.793000000    -0.532000000     1.130000000
O    -2.307000000    -3.017000000     2.587000000
H    -2.803000000    -2.654000000     3.321000000
H    -2.890000000    -2.923000000     1.834000000
O    -1.999000000    -0.978000000    -4.414000000
H    -1.525000000    -1.307000000    -3.650000000
H    -1.555000000    -0.159000000    -4.636000000
O     4.915000000     1.924000000     3.014000000
H     4.480000000     2.721000000     2.710000000
H     5.319000000     1.558000000     2.228000000
O     2.534000000     2.887000000     4.726000000
H     3.420000000     3.249000000     4.729000000
H     1.975000000     3.625000000     4.481000000
O     4.775000000     5.956000000     1.011000000
H     5.038000000     6.863000000     0.855000000
H     4.684000000     5.893000000     1.962000000
O    -2.656000000     4.819000000    -2.854000000
H    -3.192000000     5.507000000    -2.460000000
H    -1.961000000     4.660000000    -2.215000000
O    -2.230000000     0.621000000     2.614000000
H    -1.827000000     0.170000000     1.873000000
H    -1.734000000     0.320000000     3.376000000
O     1.027000000     7.969000000     0.868000000
H     0.305000000     8.056000000     0.246000000
H     1.370000000     7.088000000     0.716000000
O    -2.337000000     3.053000000     1.350000000
H    -3.098000000     3.509000000     1.711000000
H    -2.357000000     2.189000000     1.761000000
O     2.612000000     6.975000000    -4.217000000
H     2.900000000     7.189000000    -3.330000000
H     2.762000000     6.033000000    -4.297000000
O     2.895000000     2.320000000    -3.724000000
H     3.182000000     2.909000000    -3.027000000
H     2.838000000     2.878000000    -4.500000000
O    -3.776000000    -3.503000000     0.303000000
H    -4.210000000    -4.344000000     0.164000000
H    -4.493000000    -2.880000000     0.418000000
O    -7.284000000    -2.247000000     2.804000000
H    -7.281000000    -1.698000000     3.588000000
H    -6.424000000    -2.103000000     2.408000000
