158
-3044.98891
C     1.120000000    -0.510000000     0.750000000
H     1.899000000    -0.985000000     1.341000000
C    -0.190000000    -0.757000000     1.093000000
H    -0.358000000    -1.460000000     1.906000000
C    -1.194000000    -0.237000000     0.265000000
H    -2.300000000    -0.481000000     0.392000000
C    -0.839000000     0.662000000    -0.758000000
H    -1.649000000     1.095000000    -1.340000000
C     0.474000000     0.936000000    -1.038000000
H     0.677000000     1.646000000    -1.835000000
C     1.476000000     0.296000000    -0.325000000
C     2.922000000     0.643000000    -0.601000000
O     3.186000000     1.163000000    -1.693000000
O     3.828000000     0.385000000     0.134000000
O     2.034000000    -3.922000000     3.191000000
H     1.483000000    -4.327000000     2.522000000
H     2.875000000    -3.780000000     2.756000000
O     2.317000000    -3.608000000    -1.194000000
H     3.009000000    -3.013000000    -1.483000000
H     1.889000000    -3.888000000    -2.003000000
O     0.018000000    -1.292000000     6.888000000
H     0.535000000    -1.658000000     7.606000000
H     0.575000000    -1.394000000     6.116000000
O    -3.092000000     3.325000000     2.332000000
H    -2.309000000     3.115000000     2.841000000
H    -3.142000000     4.281000000     2.353000000
O    -6.341000000     2.129000000    -3.776000000
H    -5.995000000     2.964000000    -4.090000000
H    -5.563000000     1.617000000    -3.553000000
O     4.039000000    -1.924000000    -5.311000000
H     3.994000000    -1.291000000    -6.028000000
H     3.513000000    -1.533000000    -4.614000000
O     2.407000000    -2.159000000     5.453000000
H     3.143000000    -2.628000000     5.844000000
H     2.233000000    -2.625000000     4.635000000
O    -0.617000000    -3.082000000     4.355000000
H     0.247000000    -2.840000000     4.023000000
H    -0.500000000    -3.965000000     4.706000000
O     1.895000000     5.300000000    -1.106000000
H     2.741000000     5.032000000    -1.465000000
H     1.275000000     5.160000000    -1.822000000
O     6.329000000     1.383000000    -1.008000000
H     5.450000000     1.223000000    -0.665000000
H     6.354000000     0.903000000    -1.836000000
O    -6.020000000    -0.227000000     1.407000000
H    -5.577000000    -1.061000000     1.247000000
H    -5.488000000     0.202000000     2.077000000
O     6.374000000    -0.182000000    -3.044000000
H     6.971000000    -0.287000000    -3.784000000
H     5.531000000    -0.499000000    -3.369000000
O     4.137000000    -1.662000000    -1.735000000
H     3.982000000    -0.719000000    -1.790000000
H     4.669000000    -1.772000000    -0.946000000
O    -0.120000000     4.265000000     0.073000000
H     0.235000000     3.380000000     0.145000000
H     0.650000000     4.825000000    -0.025000000
O    -1.448000000    -3.652000000    -2.372000000
H    -0.582000000    -4.048000000    -2.474000000
H    -1.677000000    -3.812000000    -1.457000000
O    -1.961000000     2.041000000    -3.717000000
H    -1.717000000     2.421000000    -4.561000000
H    -1.801000000     2.741000000    -3.084000000
O     8.193000000    -1.550000000    -1.335000000
H     7.453000000    -1.110000000    -1.753000000
H     8.921000000    -0.935000000    -1.430000000
O     6.448000000    -2.621000000     1.104000000
H     6.515000000    -2.747000000     2.050000000
H     7.327000000    -2.805000000     0.774000000
O     4.498000000    -1.197000000     2.794000000
H     5.015000000    -0.926000000     2.035000000
H     4.705000000    -2.124000000     2.907000000
O    -4.165000000     0.808000000    -2.786000000
H    -3.512000000     0.956000000    -3.470000000
H    -3.760000000     1.152000000    -1.990000000
O     0.035000000     5.318000000    -2.995000000
H    -0.796000000     4.850000000    -2.912000000
H    -0.218000000     6.226000000    -3.165000000
O    -3.946000000     2.059000000     0.126000000
H    -3.494000000     2.569000000     0.798000000
H    -4.762000000     2.536000000    -0.028000000
O     6.237000000     1.226000000     4.020000000
H     5.777000000     0.424000000     3.774000000
H     5.569000000     1.910000000     3.972000000
O    -6.031000000    -3.066000000     0.017000000
H    -5.916000000    -2.681000000    -0.852000000
H    -5.196000000    -3.494000000     0.203000000
O     3.873000000     3.671000000    -1.940000000
H     3.604000000     2.759000000    -1.834000000
H     4.379000000     3.679000000    -2.752000000
O     1.531000000     0.393000000    -6.218000000
H     1.273000000     1.291000000    -6.429000000
H     2.217000000     0.490000000    -5.557000000
O    -0.788000000     3.680000000     3.809000000
H    -0.573000000     4.495000000     3.355000000
H    -0.335000000     3.001000000     3.311000000
O     4.167000000    -4.262000000     1.072000000
H     4.918000000    -3.699000000     0.885000000
H     4.018000000    -4.741000000     0.257000000
O     7.804000000     3.810000000    -0.730000000
H     8.528000000     3.631000000    -0.130000000
H     7.249000000     3.033000000    -0.673000000
O     4.359000000     4.827000000     0.496000000
H     4.915000000     4.106000000     0.791000000
H     4.091000000     4.576000000    -0.389000000
O    -3.559000000    -3.096000000    -4.526000000
H    -3.076000000    -3.746000000    -5.037000000
H    -2.951000000    -2.362000000    -4.436000000
O     3.288000000     0.704000000     5.100000000
H     3.307000000     1.080000000     4.220000000
H     3.096000000    -0.224000000     4.960000000
O    -2.524000000    -3.607000000     6.350000000
H    -3.043000000    -2.811000000     6.467000000
H    -1.797000000    -3.338000000     5.788000000
O    -4.015000000    -3.474000000     1.968000000
H    -3.764000000    -3.960000000     2.753000000
H    -4.818000000    -3.016000000     2.217000000
O     0.020000000    -5.227000000     1.849000000
H    -0.438000000    -4.760000000     1.150000000
H    -0.620000000    -5.861000000     2.172000000
O    -5.205000000    -1.886000000    -2.340000000
H    -4.682000000    -2.673000000    -2.493000000
H    -4.682000000    -1.175000000    -2.710000000
O    -1.731000000    -1.179000000    -3.903000000
H    -1.536000000    -1.789000000    -3.191000000
H    -1.317000000    -0.359000000    -3.635000000
O     3.387000000     1.892000000     2.524000000
H     3.474000000     1.225000000     1.844000000
H     4.102000000     2.505000000     2.353000000
O     5.814000000     2.633000000     1.576000000
H     6.047000000     2.324000000     0.701000000
H     6.525000000     2.322000000     2.137000000
O     1.637000000     4.171000000    -5.057000000
H     0.910000000     3.845000000    -5.588000000
H     1.250000000     4.863000000    -4.520000000
O    -2.379000000     4.417000000    -1.888000000
H    -3.014000000     5.041000000    -1.535000000
H    -1.805000000     4.215000000    -1.149000000
O    -7.135000000     0.313000000    -1.041000000
H    -6.465000000     0.476000000    -1.705000000
H    -6.679000000     0.427000000    -0.208000000
O    -2.802000000    -1.426000000     3.344000000
H    -2.873000000    -2.227000000     2.826000000
H    -2.397000000    -1.706000000     4.165000000
O     0.745000000     2.234000000     2.169000000
H     1.585000000     2.094000000     2.608000000
H     0.640000000     1.468000000     1.604000000
O    -4.286000000     1.039000000     3.160000000
H    -3.614000000     0.358000000     3.167000000
H    -3.890000000     1.762000000     2.673000000
O     4.872000000     3.148000000    -5.318000000
H     4.068000000     3.667000000    -5.336000000
H     5.150000000     3.104000000    -6.233000000
O     3.291000000     1.019000000    -4.294000000
H     3.101000000     1.143000000    -3.364000000
H     4.090000000     1.523000000    -4.446000000
O    -2.275000000    -4.390000000     0.258000000
H    -2.739000000    -5.223000000     0.172000000
H    -2.795000000    -3.890000000     0.887000000
