158
-3054.53738
C     1.138000000    -0.073000000     1.015000000
H     1.901000000    -0.197000000     1.780000000
C     0.014000000    -0.890000000     1.068000000
H    -0.088000000    -1.683000000     1.803000000
C    -0.959000000    -0.704000000     0.087000000
H    -1.846000000    -1.403000000     0.067000000
C    -0.839000000     0.222000000    -0.964000000
H    -1.628000000     0.214000000    -1.711000000
C     0.137000000     1.169000000    -0.853000000
H     0.111000000     2.016000000    -1.534000000
C     1.157000000     1.058000000     0.091000000
C     2.395000000     1.934000000    -0.067000000
O     2.333000000     3.087000000    -0.515000000
O     3.454000000     1.535000000     0.389000000
O     3.947000000    -4.180000000     0.610000000
H     3.002000000    -4.077000000     0.502000000
H     4.256000000    -4.476000000    -0.247000000
O    -3.592000000    -4.395000000    -1.031000000
H    -3.341000000    -3.499000000    -1.258000000
H    -4.453000000    -4.305000000    -0.621000000
O    -5.453000000     2.362000000    -1.445000000
H    -6.191000000     2.618000000    -1.999000000
H    -4.688000000     2.436000000    -2.016000000
O     4.550000000     0.359000000     5.520000000
H     4.414000000    -0.138000000     4.713000000
H     4.284000000     1.252000000     5.299000000
O     0.051000000     6.219000000     1.822000000
H    -0.003000000     6.638000000     0.963000000
H     0.807000000     6.630000000     2.241000000
O    -3.676000000    -0.014000000     2.550000000
H    -4.274000000     0.330000000     1.886000000
H    -3.555000000    -0.933000000     2.311000000
O     0.616000000     4.484000000    -1.801000000
H     1.218000000     3.957000000    -1.276000000
H     1.181000000     4.954000000    -2.414000000
O     5.919000000     2.039000000     0.256000000
H     5.026000000     1.832000000    -0.020000000
H     6.136000000     1.361000000     0.895000000
O    -6.526000000    -1.365000000     2.521000000
H    -5.577000000    -1.476000000     2.572000000
H    -6.712000000    -0.625000000     3.099000000
O     6.026000000    -0.905000000    -1.894000000
H     6.055000000    -1.295000000    -1.020000000
H     6.602000000    -1.457000000    -2.422000000
O     4.081000000     0.756000000    -2.372000000
H     4.805000000     0.147000000    -2.230000000
H     3.867000000     1.082000000    -1.497000000
O    -1.692000000     3.076000000     1.715000000
H    -1.356000000     2.476000000     1.049000000
H    -2.310000000     3.635000000     1.245000000
O     1.407000000    -3.320000000    -0.047000000
H     1.145000000    -2.426000000    -0.267000000
H     0.784000000    -3.874000000    -0.517000000
O     4.346000000    -0.146000000     2.724000000
H     3.760000000     0.476000000     2.293000000
H     4.669000000    -0.702000000     2.015000000
O    -2.509000000    -6.899000000    -3.613000000
H    -3.109000000    -7.550000000    -3.248000000
H    -2.792000000    -6.070000000    -3.227000000
O    -3.462000000     3.376000000    -3.074000000
H    -2.526000000     3.511000000    -3.225000000
H    -3.890000000     3.844000000    -3.791000000
O     0.970000000    -6.007000000    -3.648000000
H     1.805000000    -5.571000000    -3.814000000
H     0.571000000    -5.501000000    -2.941000000
O     2.388000000     5.313000000    -3.923000000
H     2.941000000     4.540000000    -3.811000000
H     1.976000000     5.190000000    -4.778000000
O    -5.372000000     1.782000000     1.339000000
H    -6.195000000     2.259000000     1.448000000
H    -5.152000000     1.892000000     0.414000000
O     0.453000000    -3.779000000     4.080000000
H     0.639000000    -2.911000000     4.439000000
H     0.552000000    -4.371000000     4.825000000
O     7.831000000     2.741000000    -1.749000000
H     7.246000000     2.545000000    -1.017000000
H     7.910000000     1.912000000    -2.222000000
O     6.080000000     5.032000000     0.446000000
H     6.356000000     4.159000000     0.169000000
H     5.485000000     5.325000000    -0.244000000
O    -7.268000000    -2.529000000    -2.002000000
H    -6.564000000    -1.942000000    -2.276000000
H    -7.636000000    -2.114000000    -1.222000000
O     2.895000000    -4.761000000     3.317000000
H     1.942000000    -4.668000000     3.306000000
H     3.141000000    -4.818000000     2.394000000
O    -2.076000000    -6.300000000     0.098000000
H    -1.965000000    -6.934000000    -0.611000000
H    -2.700000000    -5.662000000    -0.247000000
O     0.957000000     1.359000000    -5.310000000
H     1.376000000     1.305000000    -6.169000000
H     0.119000000     1.790000000    -5.479000000
O     4.291000000     4.436000000    -1.614000000
H     3.702000000     3.998000000    -1.000000000
H     4.287000000     3.876000000    -2.390000000
O    -0.965000000     4.021000000    -4.140000000
H    -0.344000000     3.957000000    -3.415000000
H    -0.626000000     4.732000000    -4.684000000
O     3.318000000     7.217000000    -1.836000000
H     3.728000000     6.405000000    -1.540000000
H     2.919000000     6.992000000    -2.677000000
O     1.182000000     4.193000000     3.889000000
H     1.229000000     4.375000000     2.951000000
H     0.260000000     3.989000000     4.048000000
O     5.604000000    -1.877000000     0.897000000
H     6.347000000    -2.266000000     1.358000000
H     4.937000000    -2.563000000     0.895000000
O    -6.170000000    -4.388000000    -0.155000000
H    -6.566000000    -4.810000000     0.607000000
H    -6.736000000    -4.632000000    -0.886000000
O     3.050000000     7.631000000     1.394000000
H     3.174000000     6.692000000     1.536000000
H     2.441000000     7.684000000     0.658000000
O     3.278000000     2.758000000     4.850000000
H     4.017000000     3.307000000     4.588000000
H     2.514000000     3.184000000     4.461000000
O    -4.114000000    -2.601000000     1.859000000
H    -3.277000000    -3.060000000     1.926000000
H    -4.753000000    -3.292000000     1.685000000
O    -4.063000000    -0.380000000     5.477000000
H    -3.797000000    -0.019000000     4.631000000
H    -3.505000000     0.067000000     6.114000000
O    -1.811000000    -4.296000000     2.189000000
H    -1.045000000    -4.195000000     2.753000000
H    -1.598000000    -5.040000000     1.626000000
O    -5.523000000    -0.570000000    -3.326000000
H    -4.572000000    -0.651000000    -3.256000000
H    -5.667000000     0.333000000    -3.609000000
O    -0.380000000    -1.450000000    -3.907000000
H     0.439000000    -0.963000000    -3.819000000
H    -0.694000000    -1.232000000    -4.785000000
O     3.178000000     4.775000000     1.277000000
H     2.704000000     4.206000000     0.671000000
H     3.936000000     4.258000000     1.548000000
O    -1.764000000    -3.544000000    -3.197000000
H    -2.357000000    -3.842000000    -3.887000000
H    -1.259000000    -2.839000000    -3.601000000
O    -0.501000000     6.870000000    -0.869000000
H    -1.454000000     6.913000000    -0.787000000
H    -0.325000000     5.972000000    -1.151000000
O    -2.927000000    -0.590000000    -3.915000000
H    -2.335000000    -0.288000000    -4.605000000
H    -2.355000000    -1.025000000    -3.283000000
O    -1.697000000     1.070000000     4.301000000
H    -0.864000000     0.916000000     3.855000000
H    -2.361000000     0.893000000     3.635000000
O     3.959000000     3.019000000    -3.905000000
H     4.747000000     2.863000000    -4.427000000
H     3.784000000     2.179000000    -3.480000000
O     1.838000000    -1.593000000     5.316000000
H     2.343000000    -0.997000000     5.869000000
H     2.338000000    -2.410000000     5.326000000
O     2.064000000    -0.487000000    -3.643000000
H     2.737000000    -0.170000000    -3.042000000
H     1.985000000     0.204000000    -4.300000000
O    -0.391000000    -4.926000000    -1.489000000
H    -0.902000000    -4.225000000    -1.892000000
H    -0.956000000    -5.267000000    -0.795000000
