158
-2987.49296
C     0.882000000     1.142000000    -0.283000000
H     1.600000000     1.957000000    -0.298000000
C     0.754000000     0.513000000     0.961000000
H     1.399000000     0.830000000     1.776000000
C    -0.095000000    -0.591000000     1.115000000
H    -0.114000000    -1.062000000     2.040000000
C    -0.948000000    -0.862000000     0.051000000
H    -1.656000000    -1.650000000     0.299000000
C    -0.913000000    -0.160000000    -1.174000000
H    -1.650000000    -0.275000000    -1.965000000
C     0.009000000     0.829000000    -1.369000000
C     0.098000000     1.395000000    -2.767000000
O    -0.501000000     0.966000000    -3.771000000
O     1.070000000     2.156000000    -2.911000000
O    -3.251000000    -0.395000000     3.562000000
H    -2.606000000    -0.961000000     3.986000000
H    -4.085000000    -0.639000000     3.963000000
O    -3.570000000    -4.581000000     0.611000000
H    -4.072000000    -5.378000000     0.441000000
H    -2.676000000    -4.888000000     0.760000000
O     1.416000000     2.494000000    -7.210000000
H     1.876000000     2.014000000    -6.521000000
H     0.499000000     2.242000000    -7.106000000
O    -1.387000000     2.468000000    -5.747000000
H    -0.886000000     3.264000000    -5.572000000
H    -1.066000000     1.836000000    -5.104000000
O     3.194000000    -0.546000000     3.987000000
H     2.816000000     0.333000000     3.957000000
H     3.255000000    -0.812000000     3.069000000
O     3.879000000     3.414000000     5.016000000
H     3.672000000     3.765000000     5.882000000
H     3.071000000     3.524000000     4.514000000
O    -4.928000000     3.225000000    -1.304000000
H    -4.588000000     4.120000000    -1.307000000
H    -5.567000000     3.214000000    -0.591000000
O     0.175000000     4.430000000    -2.229000000
H     0.335000000     5.030000000    -2.957000000
H     0.508000000     3.587000000    -2.536000000
O     2.555000000     2.876000000     2.043000000
H     2.256000000     3.441000000     1.330000000
H     1.925000000     3.025000000     2.747000000
O     2.026000000     4.964000000    -0.055000000
H     1.210000000     4.845000000    -0.541000000
H     2.270000000     5.875000000    -0.217000000
O    -4.665000000    -2.701000000    -1.310000000
H    -4.632000000    -3.333000000    -0.591000000
H    -4.353000000    -1.883000000    -0.923000000
O    -1.220000000     1.567000000     5.141000000
H    -1.333000000     2.008000000     4.299000000
H    -1.764000000     2.069000000     5.749000000
O    -3.053000000    -3.971000000    -3.304000000
H    -3.457000000    -3.657000000    -2.495000000
H    -3.680000000    -4.604000000    -3.655000000
O     3.693000000    -0.781000000    -2.994000000
H     3.118000000    -1.526000000    -3.169000000
H     4.571000000    -1.102000000    -3.199000000
O     2.743000000     1.487000000    -4.911000000
H     3.032000000     0.638000000    -4.578000000
H     2.260000000     1.878000000    -4.183000000
O     1.609000000    -2.838000000    -2.974000000
H     0.822000000    -3.111000000    -2.503000000
H     2.324000000    -3.293000000    -2.528000000
O     5.258000000     2.244000000     2.830000000
H     4.414000000     2.263000000     2.378000000
H     5.203000000     2.956000000     3.467000000
O    -2.023000000    -3.377000000     5.007000000
H    -1.188000000    -3.834000000     4.900000000
H    -2.684000000    -4.032000000     4.780000000
O    -3.308000000     0.828000000    -5.122000000
H    -2.622000000     1.441000000    -5.385000000
H    -2.862000000    -0.016000000    -5.053000000
O     3.730000000    -1.532000000     6.321000000
H     3.388000000    -0.974000000     5.623000000
H     3.726000000    -2.413000000     5.946000000
O     2.480000000     5.613000000    -4.845000000
H     2.597000000     6.548000000    -5.009000000
H     1.590000000     5.426000000    -5.144000000
O     1.574000000    -5.039000000     4.028000000
H     2.212000000    -4.551000000     4.549000000
H     0.902000000    -5.302000000     4.656000000
O     4.121000000     0.405000000    -0.435000000
H     3.255000000     0.772000000    -0.258000000
H     4.033000000    -0.013000000    -1.291000000
O     5.045000000     2.524000000    -6.481000000
H     4.369000000     2.096000000    -5.956000000
H     4.812000000     3.452000000    -6.463000000
O     4.464000000    -2.396000000     2.188000000
H     4.824000000    -1.870000000     2.901000000
H     4.710000000    -3.295000000     2.406000000
O    -6.255000000    -2.719000000    -3.483000000
H    -5.740000000    -2.484000000    -2.711000000
H    -5.801000000    -3.476000000    -3.853000000
O     0.242000000    -7.402000000     3.317000000
H     0.766000000    -6.608000000     3.207000000
H     0.191000000    -7.779000000     2.439000000
O     5.224000000     5.444000000     0.940000000
H     4.590000000     4.792000000     1.238000000
H     5.380000000     5.995000000     1.707000000
O     3.463000000     3.941000000    -2.738000000
H     2.878000000     3.494000000    -2.126000000
H     2.881000000     4.291000000    -3.412000000
O    -0.568000000     5.429000000    -5.257000000
H    -1.193000000     5.985000000    -4.790000000
H    -0.899000000     5.399000000    -6.155000000
O    -2.755000000     3.992000000    -2.860000000
H    -3.514000000     3.540000000    -2.493000000
H    -2.284000000     3.315000000    -3.346000000
O     1.877000000    -2.191000000    -6.772000000
H     0.957000000    -2.065000000    -6.538000000
H     1.869000000    -2.300000000    -7.722000000
O     1.202000000     3.407000000     4.503000000
H     1.099000000     3.081000000     5.397000000
H     0.328000000     3.710000000     4.257000000
O    -3.629000000    -1.667000000     6.880000000
H    -4.210000000    -1.983000000     6.189000000
H    -3.030000000    -2.396000000     7.041000000
O     3.072000000    -3.484000000    -0.767000000
H     3.831000000    -3.149000000    -0.291000000
H     2.323000000    -3.251000000    -0.219000000
O    -5.351000000     0.410000000     0.131000000
H    -5.404000000     1.263000000    -0.299000000
H    -4.761000000     0.552000000     0.871000000
O    -5.395000000    -3.427000000     2.179000000
H    -4.605000000    -3.427000000     1.640000000
H    -5.357000000    -4.254000000     2.660000000
O     0.025000000    -1.300000000    -4.952000000
H     0.708000000    -1.700000000    -4.413000000
H     0.002000000    -0.386000000    -4.670000000
O    -0.359000000    -5.061000000    -2.989000000
H    -0.996000000    -5.052000000    -3.703000000
H    -0.883000000    -5.203000000    -2.201000000
O    -0.954000000    -5.695000000     0.203000000
H    -0.245000000    -5.133000000     0.516000000
H    -0.666000000    -6.583000000     0.413000000
O    -2.619000000    -1.932000000    -5.377000000
H    -1.708000000    -1.669000000    -5.245000000
H    -2.749000000    -2.659000000    -4.769000000
O    -1.060000000     4.338000000     2.855000000
H    -0.866000000     4.799000000     2.039000000
H    -1.351000000     3.469000000     2.577000000
O    -0.159000000     0.206000000     7.383000000
H     0.532000000     0.829000000     7.604000000
H    -0.504000000     0.518000000     6.546000000
O    -2.017000000     1.617000000     2.261000000
H    -1.481000000     1.029000000     1.729000000
H    -2.452000000     1.042000000     2.890000000
O     6.572000000     0.719000000     0.454000000
H     6.458000000     1.032000000     1.351000000
H     5.689000000     0.485000000     0.168000000
O    -0.973000000     5.667000000     0.488000000
H    -1.295000000     6.555000000     0.331000000
H    -1.011000000     5.244000000    -0.370000000
O     1.195000000    -4.114000000     1.354000000
H     1.262000000    -4.655000000     2.141000000
H     1.457000000    -3.239000000     1.642000000
O    -5.216000000    -2.011000000     4.659000000
H    -4.951000000    -2.486000000     3.871000000
H    -6.086000000    -2.353000000     4.864000000
