158
-3054.35919
C     0.288000000     1.204000000    -0.736000000
H     0.612000000     2.169000000    -1.117000000
C     0.572000000     0.919000000     0.545000000
H     0.944000000     1.748000000     1.142000000
C     0.372000000    -0.319000000     1.078000000
H     0.574000000    -0.605000000     2.153000000
C    -0.243000000    -1.296000000     0.327000000
H    -0.477000000    -2.243000000     0.808000000
C    -0.525000000    -1.011000000    -0.988000000
H    -1.083000000    -1.706000000    -1.609000000
C    -0.339000000     0.274000000    -1.562000000
C    -0.781000000     0.676000000    -2.911000000
O    -1.230000000    -0.194000000    -3.627000000
O    -0.966000000     1.862000000    -3.089000000
O    -3.269000000    -3.541000000     5.519000000
H    -2.330000000    -3.395000000     5.633000000
H    -3.562000000    -2.805000000     4.982000000
O    -0.879000000    -6.022000000     1.260000000
H    -0.079000000    -5.505000000     1.173000000
H    -0.858000000    -6.348000000     2.159000000
O    -2.810000000    -5.744000000    -0.773000000
H    -3.744000000    -5.793000000    -0.569000000
H    -2.381000000    -5.705000000     0.082000000
O    -3.734000000     0.568000000    -7.345000000
H    -3.407000000     0.869000000    -6.497000000
H    -3.475000000    -0.352000000    -7.389000000
O    -0.199000000    -1.563000000    -6.979000000
H     0.132000000    -2.348000000    -6.543000000
H     0.313000000    -0.847000000    -6.605000000
O     3.057000000     0.822000000     7.343000000
H     3.887000000     1.230000000     7.097000000
H     2.773000000     0.362000000     6.553000000
O     1.319000000     4.936000000    -0.868000000
H     0.697000000     5.010000000    -0.146000000
H     0.805000000     4.579000000    -1.592000000
O    -3.030000000     1.864000000    -0.554000000
H    -2.293000000     2.059000000    -1.132000000
H    -3.268000000     2.710000000    -0.174000000
O    -0.202000000     2.983000000    -5.731000000
H    -0.891000000     3.071000000    -6.389000000
H    -0.673000000     2.886000000    -4.903000000
O     3.733000000     3.514000000    -0.252000000
H     4.243000000     3.934000000    -0.944000000
H     2.903000000     3.991000000    -0.243000000
O    -4.594000000    -0.172000000    -1.457000000
H    -4.094000000     0.589000000    -1.162000000
H    -3.975000000    -0.900000000    -1.408000000
O     0.632000000     1.038000000     5.467000000
H     0.101000000     1.816000000     5.641000000
H     0.003000000     0.381000000     5.170000000
O    -0.429000000    -4.392000000    -1.926000000
H    -1.305000000    -4.701000000    -2.157000000
H    -0.267000000    -3.661000000    -2.523000000
O     4.357000000    -0.421000000    -3.515000000
H     5.102000000    -1.011000000    -3.402000000
H     3.684000000    -0.771000000    -2.931000000
O     1.539000000     3.965000000    -3.822000000
H     1.054000000     3.710000000    -4.607000000
H     2.091000000     3.209000000    -3.625000000
O    -1.655000000     6.555000000    -1.050000000
H    -1.251000000     5.999000000    -1.716000000
H    -2.140000000     5.947000000    -0.492000000
O    -0.413000000    -3.436000000     4.964000000
H    -0.084000000    -3.928000000     4.211000000
H     0.001000000    -3.852000000     5.721000000
O     1.814000000     3.731000000     2.921000000
H     2.760000000     3.660000000     2.791000000
H     1.713000000     3.907000000     3.856000000
O    -5.813000000     0.294000000    -4.592000000
H    -6.088000000     0.796000000    -5.359000000
H    -4.861000000     0.383000000    -4.575000000
O     2.799000000    -2.172000000    -1.905000000
H     2.803000000    -1.572000000    -1.160000000
H     2.974000000    -3.031000000    -1.522000000
O     3.718000000     0.759000000    -0.601000000
H     3.850000000     1.703000000    -0.515000000
H     2.797000000     0.625000000    -0.377000000
O    -4.038000000    -1.523000000     3.943000000
H    -3.762000000    -0.853000000     3.318000000
H    -4.950000000    -1.308000000     4.138000000
O    -4.665000000     4.653000000    -2.293000000
H    -4.849000000     3.936000000    -1.686000000
H    -3.857000000     5.044000000    -1.963000000
O     3.710000000    -3.305000000     3.721000000
H     4.532000000    -3.596000000     4.116000000
H     3.319000000    -2.729000000     4.378000000
O     3.344000000     1.824000000    -4.216000000
H     3.804000000     0.987000000    -4.142000000
H     4.013000000     2.482000000    -4.026000000
O     5.448000000    -0.032000000     3.897000000
H     6.078000000     0.574000000     3.507000000
H     4.604000000     0.411000000     3.809000000
O     4.585000000     3.084000000     2.481000000
H     5.382000000     2.732000000     2.877000000
H     4.592000000     2.743000000     1.586000000
O     0.613000000    -4.054000000    -5.923000000
H     0.802000000    -3.629000000    -5.087000000
H     1.474000000    -4.274000000    -6.279000000
O     2.931000000    -2.408000000     6.442000000
H     3.854000000    -2.235000000     6.259000000
H     2.719000000    -1.830000000     7.175000000
O     1.694000000     0.897000000    -6.048000000
H     2.234000000     1.043000000    -5.271000000
H     1.053000000     1.608000000    -6.030000000
O    -2.847000000     4.298000000     0.445000000
H    -3.133000000     5.107000000     0.871000000
H    -1.936000000     4.193000000     0.719000000
O    -3.002000000     0.274000000     1.939000000
H    -3.316000000     0.656000000     1.120000000
H    -2.057000000     0.182000000     1.814000000
O     2.827000000     1.123000000     4.012000000
H     2.153000000     1.316000000     4.664000000
H     2.541000000     1.590000000     3.227000000
O     3.891000000    -4.939000000     0.825000000
H     3.105000000    -4.393000000     0.817000000
H     4.038000000    -5.160000000    -0.095000000
O    -0.281000000     4.212000000     1.587000000
H    -0.704000000     4.669000000     2.314000000
H     0.495000000     3.808000000     1.977000000
O    -2.546000000    -3.322000000     2.093000000
H    -2.731000000    -4.147000000     2.541000000
H    -2.862000000    -2.647000000     2.694000000
O    -2.637000000    -2.326000000    -3.942000000
H    -2.223000000    -1.466000000    -3.870000000
H    -3.210000000    -2.381000000    -3.177000000
O     1.275000000    -4.081000000     0.299000000
H     0.581000000    -4.071000000    -0.360000000
H     1.636000000    -3.194000000     0.280000000
O    -3.133000000     1.396000000    -4.582000000
H    -2.393000000     0.823000000    -4.382000000
H    -3.176000000     1.999000000    -3.840000000
O     1.270000000    -4.711000000     2.936000000
H     2.119000000    -4.374000000     3.223000000
H     1.068000000    -4.210000000     2.146000000
O    -3.095000000    -2.224000000    -6.813000000
H    -3.271000000    -2.120000000    -5.878000000
H    -2.188000000    -2.526000000    -6.854000000
O    -3.489000000     1.877000000     4.620000000
H    -3.147000000     1.470000000     3.824000000
H    -4.426000000     1.977000000     4.454000000
O    -1.220000000    -0.851000000     4.859000000
H    -2.055000000    -1.018000000     5.297000000
H    -0.774000000    -1.698000000     4.862000000
O    -3.445000000    -2.458000000    -0.901000000
H    -4.246000000    -2.254000000    -0.418000000
H    -3.010000000    -3.127000000    -0.372000000
O     0.652000000    -2.170000000    -3.671000000
H     0.173000000    -1.358000000    -3.837000000
H     1.448000000    -1.890000000    -3.218000000
O    -0.446000000    -1.667000000     8.123000000
H    -0.751000000    -1.179000000     8.887000000
H    -0.291000000    -0.997000000     7.457000000
O    -1.178000000     4.416000000    -2.676000000
H    -0.915000000     3.513000000    -2.855000000
H    -1.630000000     4.696000000    -3.472000000
O     3.138000000    -2.152000000     1.086000000
H     3.917000000    -1.696000000     0.767000000
H     3.251000000    -2.182000000     2.036000000
