158
-3064.42869
C    -0.116000000     1.118000000    -0.906000000
H    -0.206000000     2.033000000    -1.486000000
C     0.357000000     1.161000000     0.373000000
H     0.741000000     2.088000000     0.791000000
C     0.419000000     0.036000000     1.172000000
H     0.916000000     0.006000000     2.140000000
C     0.024000000    -1.220000000     0.598000000
H     0.207000000    -2.133000000     1.158000000
C    -0.436000000    -1.265000000    -0.741000000
H    -0.759000000    -2.182000000    -1.226000000
C    -0.500000000    -0.103000000    -1.511000000
C    -1.081000000    -0.048000000    -2.867000000
O    -1.461000000    -1.110000000    -3.339000000
O    -1.292000000     1.017000000    -3.450000000
O    -1.352000000    -3.324000000     5.640000000
H    -1.573000000    -3.657000000     4.770000000
H    -2.190000000    -3.040000000     6.007000000
O    -0.483000000    -5.999000000    -0.503000000
H     0.251000000    -5.391000000    -0.415000000
H    -0.487000000    -6.490000000     0.318000000
O    -0.334000000     7.284000000     1.668000000
H    -0.104000000     6.356000000     1.621000000
H    -1.074000000     7.317000000     2.275000000
O    -6.051000000     1.735000000    -2.199000000
H    -5.676000000     1.787000000    -3.078000000
H    -6.808000000     2.321000000    -2.226000000
O     4.524000000    -2.086000000     0.790000000
H     3.910000000    -1.741000000     0.141000000
H     4.587000000    -1.396000000     1.450000000
O     3.321000000     5.117000000     1.115000000
H     3.910000000     5.687000000     0.620000000
H     3.740000000     5.026000000     1.971000000
O     2.162000000     4.687000000    -2.672000000
H     1.409000000     4.192000000    -2.995000000
H     2.666000000     4.897000000    -3.458000000
O    -2.982000000     3.298000000    -2.821000000
H    -2.300000000     2.726000000    -3.173000000
H    -2.623000000     4.181000000    -2.909000000
O     1.417000000    -2.951000000    -7.449000000
H     0.959000000    -2.804000000    -6.621000000
H     2.075000000    -3.615000000    -7.243000000
O    -3.260000000    -2.790000000    -4.163000000
H    -2.660000000    -2.074000000    -3.955000000
H    -3.789000000    -2.897000000    -3.372000000
O     0.383000000     1.011000000     6.326000000
H     0.573000000     0.085000000     6.477000000
H     1.061000000     1.298000000     5.714000000
O    -0.762000000    -4.888000000    -3.307000000
H    -1.629000000    -5.021000000    -3.690000000
H    -0.793000000    -5.360000000    -2.475000000
O     2.530000000    -0.728000000    -5.339000000
H     3.267000000    -0.810000000    -4.734000000
H     1.901000000    -1.385000000    -5.041000000
O     2.060000000    -5.054000000    -1.002000000
H     2.086000000    -4.458000000    -1.750000000
H     2.067000000    -5.929000000    -1.391000000
O    -1.248000000     5.265000000    -3.220000000
H    -0.780000000     4.512000000    -3.582000000
H    -1.048000000     5.244000000    -2.284000000
O     0.753000000    -6.738000000     2.292000000
H     1.592000000    -6.390000000     1.989000000
H     0.556000000    -6.234000000     3.082000000
O    -4.371000000    -0.256000000    -4.062000000
H    -3.580000000     0.055000000    -3.621000000
H    -4.171000000    -1.160000000    -4.304000000
O     2.575000000    -1.350000000    -1.029000000
H     1.841000000    -0.784000000    -0.789000000
H     2.178000000    -2.047000000    -1.551000000
O     3.510000000     3.094000000    -0.735000000
H     3.417000000     3.591000000    -1.547000000
H     3.222000000     3.698000000    -0.050000000
O    -4.086000000    -2.697000000     2.382000000
H    -3.741000000    -1.897000000     1.985000000
H    -5.006000000    -2.717000000     2.120000000
O    -3.546000000    -5.408000000    -4.871000000
H    -4.151000000    -5.518000000    -5.604000000
H    -3.626000000    -4.485000000    -4.630000000
O     4.152000000     0.619000000    -1.939000000
H     3.561000000    -0.120000000    -1.797000000
H     3.761000000     1.337000000    -1.443000000
O     1.723000000    -3.284000000    -2.917000000
H     0.896000000    -3.555000000    -3.317000000
H     2.347000000    -3.962000000    -3.175000000
O     4.442000000    -2.518000000     4.570000000
H     4.199000000    -1.848000000     3.931000000
H     4.458000000    -2.056000000     5.408000000
O     1.222000000     1.794000000    -5.952000000
H     1.887000000     1.132000000    -5.764000000
H     0.462000000     1.294000000    -6.248000000
O    -5.174000000     2.840000000    -4.793000000
H    -4.298000000     2.663000000    -4.450000000
H    -5.022000000     3.361000000    -5.582000000
O    -3.962000000     1.481000000    -0.692000000
H    -3.340000000     2.134000000    -1.012000000
H    -4.746000000     1.616000000    -1.224000000
O     0.305000000     3.369000000     3.990000000
H    -0.633000000     3.178000000     3.966000000
H     0.480000000     3.594000000     4.904000000
O    -3.016000000    -0.717000000     0.834000000
H    -2.125000000    -0.842000000     0.507000000
H    -3.316000000     0.088000000     0.413000000
O     3.799000000    -0.256000000     2.799000000
H     4.691000000     0.071000000     2.915000000
H     3.251000000     0.372000000     3.271000000
O     0.519000000     4.755000000     1.550000000
H     0.442000000     4.082000000     2.226000000
H     1.453000000     4.784000000     1.346000000
O     4.743000000     2.448000000     5.183000000
H     5.452000000     1.848000000     4.953000000
H     4.679000000     2.389000000     6.136000000
O     4.617000000     4.802000000     3.564000000
H     4.514000000     4.064000000     4.166000000
H     5.261000000     4.501000000     2.924000000
O    -2.869000000     1.798000000    -7.571000000
H    -3.758000000     2.001000000    -7.278000000
H    -2.411000000     2.638000000    -7.543000000
O    -4.611000000    -3.001000000    -1.886000000
H    -4.055000000    -3.458000000    -1.254000000
H    -5.019000000    -2.298000000    -1.381000000
O    -1.784000000    -4.487000000     2.852000000
H    -2.358000000    -5.252000000     2.838000000
H    -2.305000000    -3.789000000     2.455000000
O    -0.788000000    -4.921000000    -6.539000000
H    -0.686000000    -4.403000000    -5.741000000
H    -1.710000000    -5.176000000    -6.544000000
O     3.641000000    -4.803000000     1.207000000
H     3.225000000    -4.820000000     0.345000000
H     4.071000000    -3.949000000     1.248000000
O    -0.909000000     0.199000000    -6.418000000
H    -1.066000000     0.714000000    -5.627000000
H    -1.560000000     0.517000000    -7.044000000
O     2.240000000     1.540000000     4.264000000
H     3.013000000     2.004000000     4.586000000
H     1.705000000     2.220000000     3.855000000
O     2.769000000    -4.846000000     4.008000000
H     3.213000000    -4.082000000     4.375000000
H     2.783000000    -4.699000000     3.062000000
O    -1.179000000     5.267000000    -0.535000000
H    -0.483000000     5.122000000     0.105000000
H    -1.871000000     5.708000000    -0.042000000
O    -2.073000000     1.776000000     3.567000000
H    -1.767000000     1.270000000     2.814000000
H    -2.979000000     2.000000000     3.352000000
O    -3.159000000    -0.525000000     6.203000000
H    -2.246000000    -0.295000000     6.030000000
H    -3.544000000     0.275000000     6.558000000
O     0.650000000    -1.592000000     6.308000000
H     0.031000000    -2.112000000     5.795000000
H     0.382000000    -1.730000000     7.217000000
O    -2.892000000    -4.897000000    -0.891000000
H    -3.279000000    -5.349000000    -0.142000000
H    -2.052000000    -5.335000000    -1.028000000
O     0.015000000    -2.149000000    -5.306000000
H    -0.249000000    -1.428000000    -5.878000000
H    -0.427000000    -1.971000000    -4.476000000
O     0.068000000     3.168000000    -3.820000000
H    -0.436000000     2.367000000    -3.677000000
H     0.612000000     2.976000000    -4.584000000
