158
-3023.50745
C    -0.122000000     1.296000000    -0.677000000
H    -0.138000000     2.297000000    -1.100000000
C     0.767000000     1.081000000     0.363000000
H     1.385000000     1.942000000     0.607000000
C     0.804000000    -0.209000000     0.926000000
H     1.387000000    -0.429000000     1.744000000
C    -0.077000000    -1.211000000     0.470000000
H    -0.018000000    -2.197000000     0.924000000
C    -0.923000000    -1.018000000    -0.624000000
H    -1.505000000    -1.832000000    -1.048000000
C    -0.950000000     0.239000000    -1.211000000
C    -1.886000000     0.546000000    -2.373000000
O    -2.254000000    -0.371000000    -3.063000000
O    -2.187000000     1.685000000    -2.606000000
O     0.276000000    -1.417000000     5.282000000
H     0.157000000    -2.281000000     4.888000000
H     1.186000000    -1.412000000     5.579000000
O    -0.638000000    -5.536000000     1.576000000
H     0.118000000    -5.494000000     0.991000000
H    -0.444000000    -6.267000000     2.164000000
O    -0.016000000     6.726000000     1.970000000
H    -0.065000000     6.032000000     1.312000000
H    -0.929000000     6.918000000     2.184000000
O    -6.890000000     2.193000000    -2.426000000
H    -6.161000000     2.069000000    -3.034000000
H    -7.637000000     1.782000000    -2.861000000
O    -3.254000000    -3.935000000    -5.841000000
H    -3.657000000    -4.041000000    -4.980000000
H    -3.978000000    -4.033000000    -6.459000000
O     3.052000000    -2.261000000     1.735000000
H     2.599000000    -1.902000000     0.971000000
H     3.491000000    -1.508000000     2.129000000
O     2.033000000     3.872000000     2.264000000
H     2.744000000     3.299000000     2.549000000
H     1.898000000     4.472000000     2.998000000
O     6.165000000    -1.118000000     4.370000000
H     5.945000000    -1.588000000     5.174000000
H     6.763000000    -0.427000000     4.652000000
O    -0.011000000     5.039000000    -4.572000000
H    -0.606000000     4.292000000    -4.638000000
H     0.769000000     4.688000000    -4.143000000
O    -3.203000000     3.905000000    -1.366000000
H    -2.999000000     3.180000000    -1.956000000
H    -2.382000000     4.391000000    -1.291000000
O     2.017000000    -1.573000000    -5.187000000
H     1.161000000    -1.772000000    -4.807000000
H     2.180000000    -2.290000000    -5.799000000
O    -4.972000000    -0.949000000    -2.525000000
H    -4.222000000    -0.533000000    -2.950000000
H    -4.866000000    -0.742000000    -1.596000000
O    -3.337000000    -3.486000000    -2.587000000
H    -3.366000000    -2.530000000    -2.615000000
H    -3.465000000    -3.703000000    -1.663000000
O     3.650000000    -0.025000000    -3.501000000
H     3.534000000    -0.497000000    -2.676000000
H     3.210000000    -0.571000000    -4.153000000
O     1.589000000    -5.311000000    -0.464000000
H     1.392000000    -4.715000000    -1.187000000
H     1.598000000    -6.180000000    -0.866000000
O    -0.950000000     5.582000000    -1.749000000
H    -0.362000000     6.193000000    -2.193000000
H    -0.452000000     5.281000000    -0.989000000
O    -4.489000000     1.725000000    -4.164000000
H    -4.406000000     1.507000000    -5.092000000
H    -3.587000000     1.760000000    -3.845000000
O    -3.052000000     4.443000000    -5.900000000
H    -3.636000000     4.832000000    -5.250000000
H    -2.354000000     4.038000000    -5.384000000
O     2.331000000    -1.755000000    -1.380000000
H     1.506000000    -1.385000000    -1.066000000
H     2.071000000    -2.378000000    -2.059000000
O     3.392000000     2.466000000    -0.839000000
H     2.849000000     2.594000000    -1.616000000
H     2.830000000     2.726000000    -0.109000000
O    -3.184000000    -1.629000000     2.132000000
H    -2.748000000    -0.801000000     2.335000000
H    -3.936000000    -1.655000000     2.724000000
O    -6.974000000    -2.469000000    -1.441000000
H    -6.893000000    -2.450000000    -0.487000000
H    -6.306000000    -1.856000000    -1.750000000
O     4.406000000    -5.552000000     4.599000000
H     3.959000000    -6.095000000     3.950000000
H     3.965000000    -4.704000000     4.547000000
O    -5.787000000     4.556000000    -0.735000000
H    -4.919000000     4.171000000    -0.855000000
H    -6.347000000     4.077000000    -1.346000000
O     4.583000000    -0.275000000    -0.856000000
H     3.984000000    -1.011000000    -0.982000000
H     4.022000000     0.444000000    -0.564000000
O     1.578000000    -3.922000000    -2.762000000
H     0.880000000    -4.029000000    -3.409000000
H     2.352000000    -4.299000000    -3.180000000
O     3.087000000    -2.152000000     6.144000000
H     3.393000000    -1.261000000     6.311000000
H     3.719000000    -2.711000000     6.596000000
O     1.257000000     1.075000000    -6.236000000
H     1.781000000     0.307000000    -6.008000000
H     0.371000000     0.854000000    -5.948000000
O    -4.639000000     0.856000000    -6.694000000
H    -4.480000000     1.405000000    -7.461000000
H    -4.242000000     0.014000000    -6.915000000
O    -4.071000000     2.074000000     1.055000000
H    -4.182000000     2.455000000     1.926000000
H    -3.518000000     2.700000000     0.588000000
O    -1.694000000    -0.029000000     3.891000000
H    -1.242000000    -0.871000000     3.954000000
H    -1.005000000     0.623000000     4.021000000
O     4.489000000    -0.001000000     2.409000000
H     5.187000000    -0.269000000     3.007000000
H     4.384000000     0.937000000     2.568000000
O     0.230000000     1.774000000     4.785000000
H     0.726000000     1.978000000     3.992000000
H     0.859000000     1.890000000     5.497000000
O     4.796000000     2.635000000     3.127000000
H     5.000000000     2.556000000     4.059000000
H     5.651000000     2.658000000     2.696000000
O    -4.281000000    -0.371000000    -0.014000000
H    -3.737000000    -0.893000000     0.576000000
H    -4.362000000     0.477000000     0.422000000
O    -1.176000000    -2.999000000     3.349000000
H    -0.839000000    -3.752000000     2.863000000
H    -1.908000000    -2.681000000     2.821000000
O    -2.406000000    -5.906000000    -3.469000000
H    -2.685000000    -5.058000000    -3.124000000
H    -2.132000000    -5.720000000    -4.367000000
O     3.889000000    -4.818000000     0.953000000
H     3.001000000    -4.917000000     0.609000000
H     3.919000000    -3.920000000     1.283000000
O    -1.255000000     0.171000000    -5.656000000
H    -1.835000000     0.077000000    -4.900000000
H    -1.647000000    -0.385000000    -6.329000000
O    -6.603000000    -0.460000000    -5.031000000
H    -6.214000000    -0.581000000    -4.165000000
H    -5.931000000     0.000000000    -5.534000000
O     1.824000000    -3.791000000     4.274000000
H     2.143000000    -3.402000000     5.088000000
H     2.049000000    -3.151000000     3.598000000
O    -0.167000000     4.422000000     0.585000000
H     0.588000000     4.167000000     1.117000000
H    -0.890000000     3.899000000     0.930000000
O    -1.624000000    -0.450000000     7.103000000
H    -1.082000000    -0.767000000     6.381000000
H    -2.052000000     0.333000000     6.755000000
O    -3.826000000    -3.846000000     0.252000000
H    -4.349000000    -4.383000000     0.847000000
H    -3.449000000    -3.166000000     0.810000000
O    -0.579000000    -2.284000000    -3.875000000
H    -1.315000000    -1.840000000    -3.456000000
H    -0.931000000    -3.134000000    -4.140000000
O    -1.296000000     2.781000000    -4.640000000
H    -1.636000000     2.646000000    -3.756000000
H    -1.085000000     1.902000000    -4.954000000
O    -6.462000000     3.624000000    -5.063000000
H    -5.947000000     4.183000000    -5.645000000
H    -5.879000000     2.894000000    -4.855000000
O     7.015000000    -2.678000000     1.804000000
H     7.290000000    -2.211000000     2.593000000
H     6.077000000    -2.501000000     1.734000000
