158
-3068.56980
C     0.557000000     1.129000000    -0.711000000
H     0.788000000     2.079000000    -1.187000000
C     0.526000000     1.024000000     0.663000000
H     0.712000000     1.887000000     1.298000000
C     0.040000000    -0.120000000     1.252000000
H     0.026000000    -0.267000000     2.280000000
C    -0.394000000    -1.178000000     0.452000000
H    -0.732000000    -2.075000000     0.964000000
C    -0.337000000    -1.048000000    -0.951000000
H    -0.725000000    -1.869000000    -1.548000000
C     0.084000000     0.132000000    -1.586000000
C     0.229000000     0.194000000    -3.115000000
O    -0.365000000    -0.631000000    -3.775000000
O     0.772000000     1.143000000    -3.632000000
O     1.431000000    -1.601000000     4.675000000
H     1.418000000    -2.502000000     4.351000000
H     2.133000000    -1.590000000     5.325000000
O     1.200000000    -4.035000000     3.537000000
H     1.586000000    -4.074000000     2.662000000
H     1.015000000    -4.948000000     3.757000000
O    -3.727000000    -3.083000000     5.201000000
H    -2.827000000    -3.044000000     4.875000000
H    -4.235000000    -2.591000000     4.556000000
O    -1.667000000    -5.317000000    -5.699000000
H    -1.618000000    -4.729000000    -4.946000000
H    -2.598000000    -5.521000000    -5.783000000
O    -2.535000000     3.501000000     4.105000000
H    -2.659000000     2.734000000     4.664000000
H    -1.612000000     3.468000000     3.853000000
O    -2.631000000    -1.266000000    -6.909000000
H    -2.498000000    -2.193000000    -6.712000000
H    -2.902000000    -1.253000000    -7.827000000
O     4.812000000     1.777000000    -4.937000000
H     4.202000000     1.065000000    -5.128000000
H     4.654000000     1.987000000    -4.016000000
O     3.760000000     5.577000000     2.487000000
H     4.527000000     5.458000000     3.047000000
H     3.188000000     4.841000000     2.705000000
O     3.430000000     4.796000000    -2.960000000
H     3.140000000     3.915000000    -2.721000000
H     3.486000000     4.778000000    -3.916000000
O    -2.143000000     3.335000000    -1.907000000
H    -2.347000000     2.928000000    -2.749000000
H    -1.312000000     3.786000000    -2.054000000
O     3.155000000    -2.674000000    -2.785000000
H     2.536000000    -2.540000000    -3.502000000
H     4.015000000    -2.535000000    -3.182000000
O    -4.026000000    -1.311000000    -0.938000000
H    -4.616000000    -1.275000000    -0.185000000
H    -3.544000000    -0.485000000    -0.906000000
O    -2.704000000    -4.055000000    -1.013000000
H    -3.290000000    -3.302000000    -1.090000000
H    -2.467000000    -4.081000000    -0.086000000
O     2.776000000    -5.356000000     1.333000000
H     2.453000000    -4.649000000     0.775000000
H     2.416000000    -6.153000000     0.943000000
O     3.949000000     2.849000000     0.572000000
H     3.395000000     3.393000000     1.132000000
H     4.395000000     2.258000000     1.179000000
O     0.178000000     4.966000000    -1.600000000
H     0.954000000     4.959000000    -1.041000000
H    -0.009000000     5.894000000    -1.739000000
O    -2.708000000     2.160000000    -4.099000000
H    -3.222000000     1.376000000    -3.904000000
H    -2.467000000     2.065000000    -5.021000000
O     1.775000000    -3.671000000    -0.579000000
H     0.875000000    -3.594000000    -0.896000000
H     2.314000000    -3.380000000    -1.314000000
O     3.179000000     2.034000000    -2.589000000
H     3.160000000     2.096000000    -1.634000000
H     2.313000000     1.700000000    -2.825000000
O    -1.459000000    -1.732000000     4.123000000
H    -1.561000000    -2.045000000     3.224000000
H    -0.517000000    -1.779000000     4.286000000
O     3.564000000     1.289000000    -7.948000000
H     4.304000000     1.627000000    -7.444000000
H     2.950000000     0.971000000    -7.287000000
O    -3.249000000     1.305000000    -0.670000000
H    -2.895000000     1.952000000    -1.280000000
H    -3.114000000     1.692000000     0.195000000
O    -0.014000000     4.471000000     3.412000000
H    -0.211000000     4.590000000     4.342000000
H    -0.047000000     5.355000000     3.046000000
O     2.420000000     6.086000000    -0.027000000
H     3.190000000     5.845000000     0.488000000
H     2.598000000     6.980000000    -0.321000000
O     3.908000000     5.041000000    -5.976000000
H     3.174000000     4.427000000    -6.002000000
H     4.545000000     4.679000000    -6.591000000
O     4.395000000    -1.394000000    -0.563000000
H     3.927000000    -1.876000000    -1.245000000
H     3.709000000    -0.926000000    -0.087000000
O     0.302000000    -4.892000000    -3.501000000
H     0.569000000    -4.081000000    -3.934000000
H     0.941000000    -5.542000000    -3.795000000
O    -2.150000000    -3.106000000    -4.011000000
H    -1.505000000    -2.431000000    -3.796000000
H    -2.262000000    -3.597000000    -3.197000000
O     3.758000000    -0.730000000     5.854000000
H     3.948000000     0.144000000     5.513000000
H     4.427000000    -0.878000000     6.522000000
O     2.426000000     0.377000000    -5.812000000
H     1.923000000     1.060000000    -5.368000000
H     2.139000000    -0.438000000    -5.400000000
O    -3.971000000    -0.509000000    -3.470000000
H    -3.318000000    -1.180000000    -3.669000000
H    -4.149000000    -0.619000000    -2.536000000
O    -1.847000000     2.936000000     1.141000000
H    -1.039000000     3.203000000     1.580000000
H    -1.590000000     2.799000000     0.229000000
O    -2.754000000     0.576000000     1.996000000
H    -2.416000000    -0.101000000     1.409000000
H    -2.134000000     1.300000000     1.908000000
O     3.247000000     0.011000000     1.807000000
H     2.506000000    -0.595000000     1.816000000
H     3.084000000     0.601000000     2.542000000
O     2.721000000     1.973000000     6.630000000
H     1.930000000     2.227000000     7.105000000
H     3.320000000     1.664000000     7.309000000
O     1.783000000     0.978000000     4.162000000
H     1.650000000     0.031000000     4.191000000
H     2.038000000     1.212000000     5.055000000
O     0.270000000     1.821000000    -8.311000000
H     0.128000000     1.339000000    -7.496000000
H     0.002000000     1.212000000    -8.999000000
O    -5.581000000     0.543000000     0.717000000
H    -5.353000000     0.868000000     1.588000000
H    -4.875000000     0.856000000     0.152000000
O    -1.497000000    -6.166000000    -2.003000000
H    -1.611000000    -5.360000000    -1.500000000
H    -0.834000000    -5.947000000    -2.659000000
O    -1.248000000     0.879000000    -6.100000000
H    -0.864000000     0.589000000    -5.272000000
H    -1.771000000     0.134000000    -6.396000000
O    -4.966000000     1.245000000     3.271000000
H    -5.092000000     2.194000000     3.275000000
H    -4.117000000     1.117000000     2.848000000
O     2.453000000     3.377000000     2.971000000
H     1.592000000     3.781000000     3.081000000
H     2.405000000     2.568000000     3.481000000
O    -2.448000000     0.383000000     5.526000000
H    -2.265000000    -0.327000000     4.911000000
H    -3.304000000     0.165000000     5.896000000
O    -5.114000000    -1.768000000     3.332000000
H    -5.089000000    -0.889000000     2.955000000
H    -6.045000000    -1.987000000     3.371000000
O    -0.161000000    -0.633000000     7.077000000
H     0.397000000     0.022000000     6.658000000
H    -1.021000000    -0.506000000     6.675000000
O    -2.908000000    -3.353000000     2.276000000
H    -3.751000000    -2.911000000     2.376000000
H    -3.048000000    -4.224000000     2.645000000
O     1.417000000    -2.409000000    -5.034000000
H     0.652000000    -1.985000000    -4.645000000
H     1.156000000    -2.590000000    -5.938000000
O     1.299000000     3.468000000    -5.081000000
H     0.872000000     2.991000000    -4.370000000
H     0.860000000     3.161000000    -5.874000000
