158
-3048.08630
C     0.738000000     1.381000000     0.212000000
H     1.373000000     2.219000000     0.486000000
C     0.356000000     0.404000000     1.168000000
H     0.603000000     0.561000000     2.215000000
C    -0.439000000    -0.721000000     0.895000000
H    -0.560000000    -1.495000000     1.675000000
C    -0.689000000    -1.066000000    -0.443000000
H    -1.059000000    -2.063000000    -0.668000000
C    -0.200000000    -0.193000000    -1.407000000
H    -0.292000000    -0.350000000    -2.478000000
C     0.487000000     0.991000000    -1.136000000
C     0.970000000     1.959000000    -2.199000000
O     0.952000000     1.574000000    -3.360000000
O     1.238000000     3.101000000    -1.860000000
O     0.750000000    -2.095000000     7.352000000
H     0.962000000    -1.998000000     6.423000000
H     1.147000000    -2.929000000     7.602000000
O    -0.265000000     4.232000000     2.552000000
H     0.515000000     3.678000000     2.576000000
H    -0.572000000     4.253000000     3.459000000
O     0.460000000    -4.230000000     1.892000000
H    -0.064000000    -4.170000000     1.094000000
H     0.016000000    -3.654000000     2.515000000
O     0.655000000    -6.914000000     2.919000000
H     0.960000000    -7.321000000     2.107000000
H     0.793000000    -5.977000000     2.784000000
O    -4.342000000     2.031000000     4.077000000
H    -4.493000000     1.812000000     4.996000000
H    -3.390000000     2.017000000     3.981000000
O    -4.223000000    -0.837000000     0.992000000
H    -3.882000000    -0.031000000     0.605000000
H    -4.136000000    -1.491000000     0.299000000
O    -0.250000000     2.944000000    -7.251000000
H    -0.820000000     2.812000000    -8.009000000
H    -0.382000000     2.163000000    -6.714000000
O     4.875000000    -0.629000000     3.269000000
H     5.058000000    -0.030000000     2.545000000
H     3.941000000    -0.823000000     3.188000000
O     4.826000000     4.241000000    -2.716000000
H     5.350000000     5.040000000    -2.769000000
H     3.999000000     4.522000000    -2.325000000
O     2.801000000     8.100000000    -2.615000000
H     2.222000000     7.391000000    -2.896000000
H     3.586000000     7.995000000    -3.153000000
O    -0.853000000    -4.318000000    -2.339000000
H     0.017000000    -4.086000000    -2.664000000
H    -1.457000000    -3.899000000    -2.952000000
O     3.822000000    -3.487000000     4.810000000
H     4.157000000    -2.802000000     5.389000000
H     3.642000000    -3.036000000     3.985000000
O    -2.153000000     4.694000000     0.585000000
H    -1.380000000     4.942000000     1.094000000
H    -2.875000000     4.735000000     1.212000000
O     2.960000000     4.858000000    -0.822000000
H     2.446000000     5.290000000    -0.140000000
H     2.362000000     4.214000000    -1.202000000
O     0.741000000     5.961000000    -2.700000000
H     0.870000000     6.419000000    -1.870000000
H     1.072000000     5.077000000    -2.540000000
O     5.234000000     1.640000000     1.231000000
H     5.355000000     2.414000000     0.681000000
H     4.886000000     0.975000000     0.637000000
O    -0.008000000    -2.115000000     4.220000000
H    -0.954000000    -2.153000000     4.079000000
H     0.169000000    -2.816000000     4.846000000
O    -3.157000000     4.462000000    -2.019000000
H    -2.708000000     4.660000000    -1.197000000
H    -2.474000000     4.095000000    -2.581000000
O    -2.175000000     4.717000000    -5.708000000
H    -1.450000000     4.462000000    -6.280000000
H    -2.040000000     4.207000000    -4.909000000
O     2.421000000     0.396000000     5.149000000
H     2.774000000    -0.428000000     5.484000000
H     2.047000000     0.168000000     4.298000000
O    -2.667000000     1.938000000     0.021000000
H    -2.743000000     2.892000000    -0.010000000
H    -1.826000000     1.779000000     0.450000000
O     3.555000000    -5.026000000     1.496000000
H     3.663000000    -5.859000000     1.954000000
H     2.657000000    -4.760000000     1.690000000
O     5.763000000     3.643000000    -0.281000000
H     5.571000000     3.993000000    -1.151000000
H     6.250000000     4.342000000     0.156000000
O     2.507000000     3.047000000    -4.953000000
H     3.260000000     3.133000000    -4.369000000
H     1.814000000     2.687000000    -4.400000000
O    -6.824000000    -0.712000000     2.636000000
H    -5.920000000    -0.626000000     2.336000000
H    -6.984000000    -1.656000000     2.650000000
O     2.505000000    -0.740000000    -3.861000000
H     1.964000000     0.032000000    -3.699000000
H     3.268000000    -0.404000000    -4.332000000
O    -2.910000000     1.095000000    -5.264000000
H    -2.123000000     0.708000000    -5.647000000
H    -3.478000000     0.348000000    -5.077000000
O     2.736000000     0.661000000    -6.828000000
H     2.488000000     1.322000000    -6.181000000
H     3.509000000     0.239000000    -6.453000000
O     4.017000000     4.519000000     2.428000000
H     4.581000000     4.656000000     3.190000000
H     4.608000000     4.193000000     1.749000000
O     5.599000000     2.101000000    -4.010000000
H     5.386000000     2.881000000    -3.498000000
H     6.228000000     1.624000000    -3.469000000
O     2.618000000    -1.373000000     0.051000000
H     3.172000000    -0.967000000    -0.616000000
H     1.821000000    -0.843000000     0.056000000
O    -1.817000000     1.551000000     5.170000000
H    -1.069000000     1.423000000     5.753000000
H    -1.854000000     2.497000000     5.031000000
O     1.845000000     2.895000000     3.377000000
H     2.164000000     2.185000000     3.934000000
H     2.637000000     3.346000000     3.085000000
O    -2.145000000    -6.089000000     3.009000000
H    -1.241000000    -6.336000000     3.202000000
H    -2.069000000    -5.373000000     2.378000000
O    -3.750000000    -0.133000000    -1.960000000
H    -3.534000000     0.685000000    -1.512000000
H    -4.653000000    -0.014000000    -2.254000000
O     1.741000000     5.753000000     1.551000000
H     1.198000000     5.027000000     1.861000000
H     2.629000000     5.519000000     1.819000000
O     1.517000000    -3.609000000    -3.235000000
H     2.066000000    -3.716000000    -2.458000000
H     1.701000000    -2.719000000    -3.537000000
O    -1.556000000     2.882000000    -3.726000000
H    -0.647000000     2.583000000    -3.689000000
H    -1.986000000     2.271000000    -4.324000000
O     0.805000000     0.658000000     7.507000000
H     1.273000000     0.805000000     6.686000000
H     0.677000000    -0.290000000     7.544000000
O    -3.477000000    -3.427000000    -3.835000000
H    -3.191000000    -3.102000000    -4.688000000
H    -4.384000000    -3.700000000    -3.975000000
O    -3.601000000    -2.718000000    -0.934000000
H    -3.958000000    -3.221000000    -1.666000000
H    -3.207000000    -1.947000000    -1.343000000
O    -2.646000000    -1.545000000     3.905000000
H    -2.490000000    -0.617000000     4.078000000
H    -3.307000000    -1.552000000     3.212000000
O     2.353000000    -1.759000000     2.799000000
H     2.432000000    -1.854000000     1.850000000
H     1.432000000    -1.947000000     2.982000000
O    -1.809000000    -4.516000000     0.357000000
H    -2.489000000    -3.940000000     0.007000000
H    -1.437000000    -4.943000000    -0.414000000
O    -0.250000000     0.553000000    -5.634000000
H     0.478000000    -0.003000000    -5.913000000
H     0.002000000     0.857000000    -4.762000000
O    -3.668000000    -0.819000000     6.512000000
H    -4.538000000    -0.792000000     6.115000000
H    -3.102000000    -1.177000000     5.828000000
O     0.337000000    -4.565000000     5.377000000
H    -0.358000000    -5.207000000     5.519000000
H     1.142000000    -5.083000000     5.356000000
O     1.848000000     4.791000000    -7.099000000
H     2.144000000     4.169000000    -6.436000000
H     0.993000000     4.459000000    -7.374000000
