158
-3043.07311
C     0.733000000     1.297000000    -0.120000000
H     1.336000000     2.199000000    -0.192000000
C     0.267000000     0.727000000     1.087000000
H     0.409000000     1.097000000     2.099000000
C    -0.432000000    -0.515000000     1.040000000
H    -0.941000000    -1.004000000     1.898000000
C    -0.601000000    -1.165000000    -0.178000000
H    -1.090000000    -2.130000000    -0.285000000
C    -0.228000000    -0.517000000    -1.346000000
H    -0.461000000    -1.005000000    -2.289000000
C     0.420000000     0.683000000    -1.334000000
C     0.832000000     1.401000000    -2.647000000
O     0.534000000     0.987000000    -3.742000000
O     1.271000000     2.477000000    -2.447000000
O    -0.018000000    -2.845000000     7.398000000
H    -0.220000000    -3.522000000     6.752000000
H    -0.040000000    -3.302000000     8.239000000
O    -2.377000000     2.304000000     2.213000000
H    -2.414000000     1.771000000     1.419000000
H    -1.986000000     1.729000000     2.870000000
O    -5.679000000    -0.232000000     4.065000000
H    -5.345000000     0.326000000     4.767000000
H    -5.431000000     0.222000000     3.259000000
O    -5.383000000    -1.778000000     1.722000000
H    -5.730000000    -1.801000000     2.614000000
H    -5.189000000    -0.854000000     1.564000000
O     5.428000000     4.445000000    -4.098000000
H     6.123000000     3.793000000    -4.192000000
H     4.844000000     4.079000000    -3.434000000
O     4.679000000    -0.854000000    -0.112000000
H     5.263000000    -1.391000000    -0.649000000
H     4.797000000     0.035000000    -0.445000000
O     1.940000000     5.868000000    -3.138000000
H     1.744000000     6.353000000    -2.337000000
H     2.610000000     5.236000000    -2.878000000
O    -1.874000000    -3.689000000    -2.260000000
H    -1.361000000    -3.949000000    -3.026000000
H    -2.771000000    -3.944000000    -2.475000000
O    -1.013000000     4.803000000     4.402000000
H    -0.723000000     4.961000000     3.504000000
H    -1.863000000     5.240000000     4.459000000
O     2.750000000    -6.128000000     2.282000000
H     3.572000000    -6.438000000     2.663000000
H     2.652000000    -5.236000000     2.615000000
O    -0.738000000     6.522000000     0.880000000
H    -1.505000000     6.118000000     1.285000000
H    -0.512000000     5.936000000     0.157000000
O     3.528000000     3.871000000    -1.960000000
H     3.595000000     3.874000000    -1.005000000
H     2.837000000     3.237000000    -2.150000000
O     0.259000000     4.428000000    -0.876000000
H     1.143000000     4.653000000    -0.586000000
H     0.386000000     3.720000000    -1.506000000
O    -0.348000000    -3.575000000     3.539000000
H    -1.132000000    -3.765000000     3.024000000
H    -0.502000000    -2.701000000     3.897000000
O    -2.563000000     1.706000000    -0.677000000
H    -2.144000000     0.886000000    -0.942000000
H    -2.466000000     2.280000000    -1.437000000
O    -2.149000000     3.472000000    -6.135000000
H    -2.010000000     2.917000000    -6.902000000
H    -2.181000000     2.860000000    -5.399000000
O     4.110000000    -2.678000000     4.686000000
H     4.503000000    -3.414000000     4.218000000
H     3.531000000    -2.267000000     4.044000000
O    -4.986000000     1.062000000     1.298000000
H    -4.239000000     1.661000000     1.313000000
H    -5.375000000     1.186000000     0.433000000
O     5.424000000     2.457000000     0.851000000
H     4.467000000     2.471000000     0.883000000
H     5.670000000     3.357000000     0.639000000
O     1.073000000     3.844000000    -4.709000000
H     1.222000000     4.562000000    -4.093000000
H     1.115000000     3.054000000    -4.170000000
O    -1.902000000    -2.192000000    -5.395000000
H    -1.147000000    -2.661000000    -5.039000000
H    -1.851000000    -2.339000000    -6.340000000
O     1.452000000    -1.465000000    -4.690000000
H     1.148000000    -0.630000000    -4.332000000
H     2.406000000    -1.417000000    -4.632000000
O    -3.634000000    -0.253000000    -4.756000000
H    -3.035000000    -0.991000000    -4.867000000
H    -4.464000000    -0.561000000    -5.120000000
O     3.532000000     1.528000000    -5.769000000
H     2.938000000     2.122000000    -5.311000000
H     3.552000000     0.741000000    -5.224000000
O     5.073000000     0.923000000    -2.432000000
H     5.159000000     1.114000000    -3.366000000
H     5.389000000     1.715000000    -1.996000000
O     2.114000000    -2.314000000     0.371000000
H     2.628000000    -1.530000000     0.181000000
H     1.225000000    -1.989000000     0.514000000
O    -1.780000000     0.375000000     4.135000000
H    -1.301000000    -0.355000000     4.527000000
H    -1.622000000     1.111000000     4.726000000
O     1.565000000     3.179000000     2.852000000
H     1.535000000     2.650000000     3.649000000
H     1.839000000     4.046000000     3.150000000
O     0.947000000    -2.063000000    -7.577000000
H     0.919000000    -2.074000000    -6.621000000
H     1.387000000    -2.880000000    -7.813000000
O     3.007000000     3.966000000     0.695000000
H     2.459000000     3.611000000     1.396000000
H     3.243000000     4.843000000     0.997000000
O     0.399000000    -4.018000000    -4.067000000
H     1.111000000    -4.305000000    -3.496000000
H     0.670000000    -3.151000000    -4.371000000
O    -1.521000000     6.049000000    -3.819000000
H    -1.976000000     5.240000000    -4.052000000
H    -0.623000000     5.774000000    -3.634000000
O    -2.118000000     1.881000000    -3.927000000
H    -1.243000000     1.525000000    -3.772000000
H    -2.645000000     1.122000000    -4.176000000
O    -2.832000000    -5.131000000     4.615000000
H    -3.287000000    -5.787000000     4.087000000
H    -2.955000000    -4.311000000     4.136000000
O     0.380000000    -1.072000000     5.478000000
H     0.907000000    -0.313000000     5.728000000
H     0.257000000    -1.557000000     6.294000000
O     2.178000000     1.508000000     5.913000000
H     2.920000000     1.846000000     5.413000000
H     2.548000000     1.274000000     6.764000000
O    -0.517000000     2.439000000     5.577000000
H     0.429000000     2.355000000     5.692000000
H    -0.636000000     3.307000000     5.191000000
O    -3.136000000     4.915000000     1.762000000
H    -2.732000000     4.049000000     1.810000000
H    -4.049000000     4.767000000     2.010000000
O    -4.926000000    -3.729000000    -0.272000000
H    -5.236000000    -3.498000000    -1.147000000
H    -5.119000000    -2.959000000     0.262000000
O    -2.810000000    -3.368000000     2.436000000
H    -3.538000000    -2.818000000     2.147000000
H    -2.611000000    -3.918000000     1.678000000
O     2.284000000    -3.572000000     2.829000000
H     2.177000000    -3.025000000     2.051000000
H     1.390000000    -3.773000000     3.106000000
O     4.017000000    -0.677000000    -4.433000000
H     4.772000000    -0.904000000    -4.976000000
H     4.360000000    -0.665000000    -3.539000000
O    -2.345000000    -4.897000000     0.194000000
H    -3.196000000    -4.532000000    -0.051000000
H    -1.733000000    -4.522000000    -0.439000000
O     0.215000000     0.500000000    -6.582000000
H     0.743000000    -0.292000000    -6.688000000
H     0.028000000     0.539000000    -5.644000000
O    -4.182000000    -2.192000000     5.591000000
H    -4.622000000    -1.411000000     5.928000000
H    -3.840000000    -1.925000000     4.738000000
O     0.012000000    -5.047000000     5.847000000
H    -0.689000000    -5.655000000     6.082000000
H    -0.242000000    -4.709000000     4.988000000
O     2.503000000    -4.517000000    -1.763000000
H     2.390000000    -3.729000000    -1.232000000
H     2.184000000    -5.229000000    -1.208000000
O     1.944000000     4.379000000    -7.212000000
H     1.785000000     3.996000000    -6.349000000
H     2.100000000     3.627000000    -7.783000000
