158
-3063.90421
C     0.090000000    -0.213000000     1.512000000
H     0.346000000    -0.319000000     2.564000000
C     0.268000000    -1.215000000     0.564000000
H     0.659000000    -2.211000000     0.760000000
C     0.187000000    -0.899000000    -0.817000000
H     0.475000000    -1.729000000    -1.535000000
C    -0.329000000     0.297000000    -1.182000000
H    -0.460000000     0.490000000    -2.244000000
C    -0.596000000     1.299000000    -0.270000000
H    -0.993000000     2.222000000    -0.685000000
C    -0.392000000     1.076000000     1.120000000
C    -0.500000000     2.298000000     2.032000000
O    -1.326000000     3.128000000     1.862000000
O     0.226000000     2.324000000     3.080000000
O     2.355000000    -3.959000000     4.155000000
H     2.356000000    -3.356000000     4.898000000
H     3.274000000    -4.019000000     3.893000000
O    -0.474000000    -3.754000000     3.110000000
H    -0.354000000    -3.042000000     3.738000000
H     0.175000000    -4.410000000     3.365000000
O     2.602000000    -5.383000000     1.259000000
H     3.351000000    -5.937000000     1.041000000
H     2.740000000    -5.144000000     2.176000000
O    -3.786000000     2.813000000     1.158000000
H    -2.947000000     2.913000000     1.608000000
H    -4.275000000     3.605000000     1.383000000
O     1.981000000     2.550000000     6.678000000
H     1.056000000     2.551000000     6.925000000
H     2.270000000     3.450000000     6.831000000
O    -3.596000000     6.749000000    -0.471000000
H    -2.932000000     6.277000000    -0.972000000
H    -3.255000000     6.765000000     0.424000000
O    -1.328000000     8.333000000     1.081000000
H    -0.819000000     8.633000000     1.834000000
H    -1.627000000     7.458000000     1.326000000
O     1.413000000     4.819000000     3.876000000
H     0.762000000     5.521000000     3.898000000
H     0.897000000     4.013000000     3.886000000
O     0.039000000     0.657000000    -5.888000000
H    -0.178000000    -0.269000000    -5.998000000
H     0.513000000     0.694000000    -5.057000000
O     2.308000000     5.462000000     6.488000000
H     2.146000000     6.400000000     6.380000000
H     2.100000000     5.084000000     5.633000000
O    -5.188000000     0.394000000     0.555000000
H    -5.612000000     0.786000000    -0.208000000
H    -4.757000000     1.127000000     0.994000000
O     2.722000000    -7.269000000    -1.342000000
H     1.970000000    -7.084000000    -1.904000000
H     3.456000000    -6.828000000    -1.770000000
O    -4.078000000     3.628000000    -1.614000000
H    -3.856000000     3.366000000    -0.720000000
H    -3.245000000     3.904000000    -1.996000000
O     2.358000000     6.554000000     1.274000000
H     1.696000000     5.868000000     1.189000000
H     3.108000000     6.116000000     1.676000000
O     2.601000000     3.576000000     0.042000000
H     1.793000000     4.014000000    -0.226000000
H     2.437000000     3.302000000     0.944000000
O    -5.027000000     5.197000000     1.192000000
H    -4.548000000     5.424000000     0.395000000
H    -5.864000000     4.853000000     0.879000000
O    -3.058000000    -0.887000000    -0.421000000
H    -3.845000000    -0.396000000    -0.186000000
H    -2.413000000    -0.637000000     0.241000000
O     0.208000000     4.856000000     0.536000000
H    -0.469000000     5.150000000    -0.073000000
H    -0.265000000     4.339000000     1.188000000
O     2.919000000     0.753000000     0.894000000
H     3.426000000     0.216000000     0.284000000
H     2.006000000     0.577000000     0.666000000
O    -1.322000000     3.019000000    -3.262000000
H    -1.751000000     2.163000000    -3.293000000
H    -0.393000000     2.826000000    -3.388000000
O    -2.463000000     0.461000000    -3.922000000
H    -2.537000000     0.413000000    -4.875000000
H    -2.942000000    -0.306000000    -3.606000000
O    -0.881000000    -1.395000000     5.174000000
H    -0.743000000    -0.451000000     5.095000000
H    -1.822000000    -1.512000000     5.042000000
O     0.379000000    -6.706000000     0.017000000
H     0.849000000    -6.156000000     0.642000000
H     0.958000000    -7.454000000    -0.128000000
O     2.414000000    -0.072000000    -3.348000000
H     2.044000000     0.773000000    -3.091000000
H     3.322000000     0.125000000    -3.577000000
O    -1.076000000     6.289000000     4.610000000
H    -1.823000000     5.694000000     4.671000000
H    -1.455000000     7.121000000     4.327000000
O    -0.487000000    -2.040000000    -7.032000000
H    -0.920000000    -2.398000000    -7.806000000
H    -1.089000000    -2.229000000    -6.312000000
O     2.970000000    -3.876000000    -1.201000000
H     2.664000000    -4.394000000    -0.456000000
H     2.488000000    -4.226000000    -1.950000000
O    -3.935000000     3.012000000    -5.013000000
H    -3.304000000     3.131000000    -4.302000000
H    -4.415000000     3.839000000    -5.047000000
O     4.283000000    -1.109000000    -0.719000000
H     3.582000000    -1.583000000    -1.167000000
H     4.679000000    -1.760000000    -0.140000000
O     4.819000000    -0.640000000     2.994000000
H     4.063000000    -0.053000000     2.991000000
H     4.845000000    -1.001000000     2.108000000
O    -1.471000000     5.320000000    -1.910000000
H    -1.308000000     4.481000000    -2.341000000
H    -1.548000000     5.948000000    -2.628000000
O     1.886000000    -2.183000000     6.463000000
H     1.065000000    -1.919000000     6.046000000
H     2.298000000    -1.360000000     6.723000000
O    -1.002000000     1.330000000     5.528000000
H    -1.094000000     2.019000000     6.187000000
H    -0.634000000     1.776000000     4.765000000
O     4.899000000     2.519000000     1.734000000
H     5.716000000     2.020000000     1.705000000
H     4.229000000     1.898000000     1.447000000
O     1.592000000    -5.062000000    -3.236000000
H     1.300000000    -5.645000000    -3.938000000
H     1.423000000    -4.181000000    -3.570000000
O    -2.418000000    -2.774000000    -5.178000000
H    -2.662000000    -3.697000000    -5.252000000
H    -2.305000000    -2.632000000    -4.238000000
O    -2.278000000     5.727000000     1.902000000
H    -1.936000000     4.846000000     2.052000000
H    -3.074000000     5.768000000     2.433000000
O     1.535000000     2.564000000    -3.631000000
H     1.794000000     3.173000000    -2.940000000
H     2.195000000     2.681000000    -4.314000000
O    -2.986000000    -3.459000000     1.438000000
H    -2.809000000    -2.665000000     0.935000000
H    -2.149000000    -3.675000000     1.849000000
O    -0.447000000    -4.667000000    -1.535000000
H     0.401000000    -4.832000000    -1.948000000
H    -0.429000000    -5.191000000    -0.734000000
O     2.747000000     1.728000000     4.108000000
H     2.268000000     1.843000000     4.928000000
H     2.079000000     1.809000000     3.427000000
O    -6.044000000     1.066000000    -2.041000000
H    -5.218000000     1.550000000    -2.019000000
H    -6.221000000     0.936000000    -2.973000000
O     4.942000000    -4.329000000    -3.998000000
H     4.254000000    -3.769000000    -3.638000000
H     4.543000000    -5.197000000    -4.047000000
O     3.996000000     4.928000000     2.835000000
H     3.426000000     4.421000000     3.413000000
H     4.539000000     4.273000000     2.398000000
O     1.946000000    -2.533000000    -4.242000000
H     2.693000000    -2.598000000    -4.837000000
H     2.026000000    -1.662000000    -3.852000000
O    -4.381000000     1.280000000     4.201000000
H    -5.197000000     1.108000000     3.730000000
H    -4.042000000     0.411000000     4.416000000
O    -2.797000000     3.594000000     4.179000000
H    -2.044000000     3.276000000     3.680000000
H    -3.529000000     3.056000000     3.876000000
O    -2.073000000    -2.573000000    -2.425000000
H    -2.075000000    -1.904000000    -1.740000000
H    -1.404000000    -3.199000000    -2.147000000
