158
-3046.63717
C     0.377000000     0.626000000    -1.287000000
H     0.773000000     1.117000000    -2.173000000
C     1.172000000     0.425000000    -0.129000000
H     2.215000000     0.720000000    -0.200000000
C     0.731000000    -0.257000000     0.989000000
H     1.388000000    -0.494000000     1.866000000
C    -0.616000000    -0.612000000     1.007000000
H    -0.982000000    -1.154000000     1.876000000
C    -1.444000000    -0.426000000    -0.082000000
H    -2.501000000    -0.672000000    -0.020000000
C    -1.021000000     0.346000000    -1.160000000
C    -2.009000000     0.757000000    -2.269000000
O    -3.105000000     1.164000000    -1.937000000
O    -1.550000000     1.102000000    -3.354000000
O    -3.689000000     2.436000000     2.039000000
H    -3.774000000     3.081000000     2.742000000
H    -2.821000000     2.599000000     1.669000000
O     3.948000000    -2.427000000     1.553000000
H     3.784000000    -3.225000000     1.050000000
H     3.078000000    -2.133000000     1.824000000
O     4.325000000     1.082000000     6.781000000
H     4.243000000     0.800000000     5.870000000
H     3.474000000     0.884000000     7.171000000
O     5.668000000    -3.441000000    -0.944000000
H     6.007000000    -3.264000000    -0.067000000
H     5.779000000    -2.615000000    -1.415000000
O     3.578000000     0.321000000     4.264000000
H     2.961000000     1.039000000     4.125000000
H     3.754000000    -0.016000000     3.385000000
O    -5.863000000     1.566000000    -4.913000000
H    -4.972000000     1.240000000    -5.039000000
H    -5.768000000     2.295000000    -4.300000000
O    -2.985000000    -4.967000000     4.656000000
H    -2.197000000    -4.493000000     4.921000000
H    -3.468000000    -4.344000000     4.113000000
O     1.658000000     6.417000000    -1.088000000
H     1.488000000     5.787000000    -1.789000000
H     2.131000000     5.914000000    -0.425000000
O    -6.273000000     3.780000000    -2.617000000
H    -5.792000000     4.601000000    -2.720000000
H    -5.761000000     3.280000000    -1.981000000
O     1.778000000     2.897000000    -6.582000000
H     1.851000000     3.475000000    -7.342000000
H     1.142000000     3.329000000    -6.012000000
O    -0.875000000     2.251000000     2.026000000
H    -0.716000000     1.325000000     1.840000000
H    -0.628000000     2.703000000     1.219000000
O     2.867000000     4.937000000     0.950000000
H     3.310000000     5.461000000     1.617000000
H     3.400000000     4.145000000     0.875000000
O    -5.656000000    -1.850000000     0.562000000
H    -5.457000000    -1.567000000    -0.331000000
H    -5.535000000    -2.799000000     0.545000000
O     0.169000000    -5.903000000    -0.471000000
H    -0.263000000    -5.961000000    -1.323000000
H    -0.152000000    -5.083000000    -0.095000000
O    -1.137000000    -3.978000000     1.070000000
H    -0.700000000    -4.308000000     1.854000000
H    -1.971000000    -3.632000000     1.388000000
O     3.040000000     2.508000000    -1.793000000
H     2.898000000     3.375000000    -1.412000000
H     2.421000000     2.462000000    -2.521000000
O     7.166000000    -2.747000000     1.445000000
H     7.003000000    -2.164000000     2.186000000
H     8.111000000    -2.901000000     1.464000000
O    -7.884000000     0.335000000    -1.493000000
H    -6.967000000     0.575000000    -1.620000000
H    -7.869000000    -0.296000000    -0.773000000
O    -4.299000000    -0.397000000     2.521000000
H    -4.930000000    -0.871000000     1.979000000
H    -4.226000000     0.463000000     2.107000000
O     5.145000000     0.117000000     1.817000000
H     4.873000000     0.434000000     0.955000000
H     5.253000000    -0.827000000     1.701000000
O    -2.946000000     3.946000000    -2.624000000
H    -3.123000000     3.006000000    -2.640000000
H    -3.635000000     4.329000000    -3.166000000
O    -5.000000000    -0.797000000    -2.125000000
H    -4.457000000    -0.011000000    -2.174000000
H    -5.189000000    -1.015000000    -3.038000000
O     3.996000000     2.698000000    -5.099000000
H     4.078000000     3.579000000    -4.736000000
H     3.130000000     2.686000000    -5.507000000
O     1.414000000     0.159000000    -6.138000000
H     1.771000000    -0.025000000    -7.007000000
H     1.554000000     1.097000000    -6.015000000
O     5.107000000     3.283000000     1.087000000
H     5.420000000     2.566000000     0.535000000
H     5.703000000     3.286000000     1.836000000
O     5.604000000    -1.246000000    -2.475000000
H     5.571000000    -0.350000000    -2.139000000
H     5.090000000    -1.218000000    -3.282000000
O    -3.664000000    -2.217000000     5.429000000
H    -4.582000000    -2.090000000     5.668000000
H    -3.175000000    -1.940000000     6.204000000
O    -1.008000000     3.935000000    -0.725000000
H    -1.186000000     4.620000000    -0.080000000
H    -1.793000000     3.913000000    -1.274000000
O    -0.285000000    -0.959000000    -4.550000000
H    -0.535000000    -0.222000000    -3.992000000
H     0.408000000    -0.611000000    -5.111000000
O     2.733000000    -4.694000000     0.335000000
H     2.034000000    -4.988000000    -0.249000000
H     2.921000000    -5.454000000     0.886000000
O     2.804000000    -2.029000000    -4.522000000
H     2.758000000    -2.301000000    -3.605000000
H     1.903000000    -1.795000000    -4.748000000
O     5.494000000     1.285000000    -1.007000000
H     6.033000000     1.635000000    -1.716000000
H     4.616000000     1.623000000    -1.185000000
O     7.317000000     0.865000000     3.562000000
H     6.468000000     0.671000000     3.165000000
H     7.395000000     1.818000000     3.506000000
O     0.330000000    -0.840000000     5.436000000
H     1.239000000    -0.686000000     5.179000000
H     0.179000000    -0.231000000     6.159000000
O     3.040000000    -3.125000000    -1.945000000
H     2.139000000    -3.157000000    -1.623000000
H     3.574000000    -3.365000000    -1.188000000
O    -3.262000000    -2.208000000    -5.573000000
H    -2.788000000    -1.378000000    -5.529000000
H    -2.638000000    -2.858000000    -5.249000000
O    -0.193000000     3.617000000     4.536000000
H    -0.499000000     4.498000000     4.321000000
H    -0.280000000     3.128000000     3.718000000
O    -1.227000000    -3.187000000    -3.421000000
H    -0.776000000    -3.396000000    -2.603000000
H    -0.812000000    -2.379000000    -3.723000000
O    -0.582000000     3.465000000    -4.765000000
H    -1.355000000     3.997000000    -4.956000000
H    -0.925000000     2.705000000    -4.295000000
O    -3.343000000     0.915000000    -5.141000000
H    -2.646000000     0.940000000    -4.485000000
H    -2.923000000     1.216000000    -5.947000000
O    -3.210000000    -2.855000000     2.745000000
H    -3.472000000    -2.068000000     2.267000000
H    -3.012000000    -2.544000000     3.628000000
O     5.531000000    -2.039000000     4.620000000
H     4.783000000    -1.465000000     4.788000000
H     5.143000000    -2.902000000     4.475000000
O    -5.127000000     2.096000000    -0.822000000
H    -4.327000000     1.665000000    -1.122000000
H    -4.926000000     2.379000000     0.070000000
O    -5.902000000    -2.261000000    -4.540000000
H    -6.183000000    -2.721000000    -5.331000000
H    -4.963000000    -2.123000000    -4.664000000
O    -0.450000000    -3.664000000     4.872000000
H     0.231000000    -3.909000000     5.499000000
H    -0.530000000    -2.715000000     4.964000000
O     0.808000000     4.340000000    -2.638000000
H     0.023000000     4.178000000    -2.115000000
H     0.640000000     3.896000000    -3.469000000
O     0.322000000    -2.747000000    -0.914000000
H     0.082000000    -3.175000000    -0.093000000
H     0.565000000    -1.857000000    -0.658000000
O     2.653000000     2.703000000     3.400000000
H     2.450000000     3.099000000     2.553000000
H     2.887000000     3.443000000     3.960000000
