158
-3025.26104
C     0.802000000     0.609000000    -1.156000000
H     1.539000000     1.048000000    -1.824000000
C     1.307000000     0.040000000     0.014000000
H     2.391000000     0.086000000     0.085000000
C     0.489000000    -0.490000000     1.011000000
H     0.889000000    -0.930000000     1.909000000
C    -0.886000000    -0.525000000     0.841000000
H    -1.545000000    -1.038000000     1.536000000
C    -1.410000000    -0.028000000    -0.322000000
H    -2.488000000    -0.110000000    -0.435000000
C    -0.580000000     0.627000000    -1.313000000
C    -1.238000000     1.093000000    -2.589000000
O    -2.443000000     1.179000000    -2.624000000
O    -0.603000000     1.073000000    -3.641000000
O    -4.251000000     0.323000000     1.849000000
H    -5.051000000     0.710000000     2.206000000
H    -3.558000000     0.934000000     2.099000000
O     3.393000000    -5.095000000    -0.646000000
H     2.552000000    -4.696000000    -0.421000000
H     3.164000000    -5.953000000    -1.002000000
O     4.611000000     1.352000000     5.803000000
H     4.328000000     1.380000000     4.889000000
H     3.814000000     1.526000000     6.305000000
O     5.807000000    -3.949000000     1.995000000
H     6.565000000    -4.339000000     2.430000000
H     5.368000000    -3.448000000     2.682000000
O     3.896000000    -0.330000000     2.902000000
H     3.109000000     0.171000000     2.691000000
H     4.273000000    -0.554000000     2.051000000
O    -3.994000000     0.878000000    -5.589000000
H    -3.778000000     1.421000000    -4.831000000
H    -3.535000000     1.293000000    -6.320000000
O    -3.459000000    -2.625000000     5.504000000
H    -3.127000000    -2.285000000     6.335000000
H    -3.888000000    -1.874000000     5.092000000
O     2.341000000     4.709000000    -1.020000000
H     2.342000000     3.765000000    -0.865000000
H     2.867000000     4.822000000    -1.812000000
O    -4.841000000     4.877000000    -3.041000000
H    -4.164000000     5.130000000    -3.669000000
H    -4.436000000     4.185000000    -2.518000000
O    -3.740000000     5.095000000    -6.234000000
H    -3.454000000     5.824000000    -5.685000000
H    -3.537000000     4.313000000    -5.721000000
O     0.150000000     2.476000000     1.557000000
H     0.304000000     1.835000000     0.863000000
H    -0.533000000     3.048000000     1.208000000
O    -2.827000000    -2.709000000    -0.696000000
H    -2.859000000    -2.042000000    -1.382000000
H    -2.681000000    -3.530000000    -1.166000000
O     0.365000000     0.435000000     5.875000000
H    -0.025000000     0.440000000     6.749000000
H     1.122000000     1.017000000     5.947000000
O    -0.890000000     5.113000000    -3.480000000
H    -0.529000000     5.261000000    -2.606000000
H    -0.157000000     4.760000000    -3.985000000
O     3.829000000    -5.287000000     5.260000000
H     4.690000000    -5.489000000     5.626000000
H     3.859000000    -4.347000000     5.082000000
O     0.130000000    -4.785000000     1.062000000
H     0.637000000    -4.238000000     1.661000000
H    -0.781000000    -4.538000000     1.226000000
O    -6.232000000    -0.920000000    -1.227000000
H    -5.419000000    -1.231000000    -1.625000000
H    -6.146000000    -1.144000000    -0.300000000
O     2.637000000    -6.539000000     3.418000000
H     1.863000000    -6.007000000     3.236000000
H     3.122000000    -6.039000000     4.074000000
O    -3.598000000     1.457000000     5.402000000
H    -4.136000000     0.692000000     5.197000000
H    -2.756000000     1.275000000     4.984000000
O    -4.878000000    -2.176000000     0.998000000
H    -4.240000000    -2.503000000     0.365000000
H    -4.493000000    -1.366000000     1.331000000
O     5.257000000    -1.513000000     0.725000000
H     5.255000000    -1.229000000    -0.189000000
H     5.302000000    -2.468000000     0.678000000
O    -2.571000000     3.190000000    -4.541000000
H    -2.261000000     2.349000000    -4.205000000
H    -1.975000000     3.835000000    -4.161000000
O    -3.863000000    -1.181000000    -2.719000000
H    -3.803000000    -0.232000000    -2.829000000
H    -4.087000000    -1.509000000    -3.590000000
O     3.295000000     2.189000000    -5.618000000
H     2.544000000     2.760000000    -5.457000000
H     2.938000000     1.461000000    -6.126000000
O     2.235000000    -0.433000000    -6.661000000
H     2.698000000    -1.176000000    -7.047000000
H     2.073000000     0.157000000    -7.397000000
O     5.179000000     2.275000000     0.912000000
H     4.449000000     2.080000000     1.500000000
H     5.846000000     2.663000000     1.479000000
O    -5.412000000    -0.738000000     4.906000000
H    -5.409000000    -0.601000000     3.959000000
H    -6.333000000    -0.881000000     5.125000000
O    -1.371000000     4.525000000    -0.277000000
H    -0.792000000     5.080000000     0.246000000
H    -2.165000000     5.048000000    -0.390000000
O     1.324000000    -0.881000000    -4.263000000
H     0.734000000    -0.136000000    -4.146000000
H     1.712000000    -0.745000000    -5.127000000
O     3.723000000    -1.484000000    -3.142000000
H     2.793000000    -1.466000000    -3.367000000
H     3.865000000    -0.679000000    -2.644000000
O    -6.511000000     2.315000000    -1.398000000
H    -5.565000000     2.317000000    -1.252000000
H    -6.829000000     1.559000000    -0.904000000
O     5.033000000     0.734000000    -1.449000000
H     5.918000000     0.439000000    -1.666000000
H     5.166000000     1.477000000    -0.860000000
O     1.111000000     3.913000000    -5.286000000
H     0.615000000     3.158000000    -5.601000000
H     0.982000000     4.582000000    -5.958000000
O     7.118000000     0.158000000     3.074000000
H     6.320000000    -0.017000000     2.575000000
H     7.125000000     1.109000000     3.188000000
O     0.252000000    -2.245000000     5.424000000
H     0.239000000    -1.304000000     5.598000000
H    -0.512000000    -2.585000000     5.890000000
O    -2.769000000    -3.905000000    -3.745000000
H    -3.445000000    -3.405000000    -4.203000000
H    -2.109000000    -3.254000000    -3.507000000
O    -1.492000000     1.053000000     3.709000000
H    -0.771000000     0.707000000     4.234000000
H    -1.072000000     1.385000000     2.915000000
O     0.873000000    -3.599000000    -3.372000000
H     0.449000000    -3.224000000    -2.600000000
H     1.103000000    -2.842000000    -3.911000000
O    -0.080000000     1.644000000    -6.187000000
H    -0.817000000     1.314000000    -6.701000000
H    -0.298000000     1.419000000    -5.283000000
O    -1.549000000    -1.551000000    -5.166000000
H    -1.030000000    -0.891000000    -4.706000000
H    -1.265000000    -1.488000000    -6.077000000
O    -2.601000000    -4.320000000     1.692000000
H    -3.185000000    -3.982000000     2.371000000
H    -2.819000000    -3.808000000     0.913000000
O     4.868000000    -2.620000000     4.563000000
H     5.769000000    -2.373000000     4.773000000
H     4.498000000    -1.844000000     4.143000000
O    -3.900000000     2.850000000    -1.344000000
H    -3.451000000     2.227000000    -1.915000000
H    -3.197000000     3.380000000    -0.968000000
O     1.240000000    -3.431000000     3.176000000
H     0.958000000    -3.048000000     4.007000000
H     1.887000000    -2.813000000     2.835000000
O     3.688000000     2.822000000    -2.960000000
H     3.538000000     2.734000000    -3.902000000
H     4.121000000     2.006000000    -2.709000000
O     2.861000000     5.536000000    -3.659000000
H     2.376000000     4.817000000    -4.066000000
H     3.757000000     5.209000000    -3.585000000
O    -0.152000000    -2.874000000    -0.892000000
H    -0.412000000    -2.062000000    -0.456000000
H    -0.108000000    -3.520000000    -0.187000000
O     2.830000000     2.217000000     2.339000000
H     1.893000000     2.285000000     2.156000000
H     3.055000000     3.053000000     2.747000000
