158
-3015.25501
C    -0.172000000    -0.206000000    -1.357000000
H    -0.073000000    -0.297000000    -2.435000000
C     0.911000000     0.415000000    -0.785000000
H     1.701000000     0.804000000    -1.422000000
C     0.948000000     0.554000000     0.588000000
H     1.779000000     1.025000000     1.100000000
C    -0.101000000    -0.004000000     1.345000000
H    -0.120000000     0.158000000     2.420000000
C    -1.177000000    -0.554000000     0.729000000
H    -2.027000000    -0.888000000     1.318000000
C    -1.232000000    -0.676000000    -0.643000000
C    -2.386000000    -1.375000000    -1.419000000
O    -3.295000000    -1.792000000    -0.749000000
O    -2.429000000    -1.540000000    -2.620000000
O    -5.234000000     0.911000000     2.502000000
H    -5.770000000     0.149000000     2.726000000
H    -4.452000000     0.821000000     3.046000000
O     2.986000000    -2.361000000    -2.889000000
H     3.453000000    -2.846000000    -3.569000000
H     2.257000000    -1.946000000    -3.349000000
O    -0.268000000    -0.581000000    -6.351000000
H    -1.022000000    -0.391000000    -6.909000000
H     0.294000000     0.190000000    -6.436000000
O    -5.158000000    -0.923000000    -6.330000000
H    -5.057000000    -0.845000000    -5.381000000
H    -5.745000000    -1.670000000    -6.448000000
O     1.136000000     4.758000000    -2.212000000
H     1.288000000     5.692000000    -2.068000000
H     0.385000000     4.549000000    -1.656000000
O     4.742000000    -2.461000000     5.006000000
H     5.529000000    -2.722000000     4.528000000
H     4.482000000    -1.632000000     4.605000000
O     1.951000000     0.713000000     5.812000000
H     2.238000000     1.578000000     5.519000000
H     2.488000000     0.100000000     5.310000000
O     1.554000000    -3.924000000    -0.414000000
H     1.454000000    -3.625000000     0.490000000
H     2.034000000    -3.219000000    -0.848000000
O    -4.877000000    -1.367000000    -3.557000000
H    -5.323000000    -2.136000000    -3.201000000
H    -3.983000000    -1.433000000    -3.222000000
O    -0.521000000    -4.653000000     3.014000000
H    -1.209000000    -4.920000000     3.623000000
H    -0.169000000    -5.476000000     2.675000000
O     0.064000000     2.980000000     3.359000000
H    -0.742000000     2.810000000     3.847000000
H    -0.102000000     3.804000000     2.902000000
O     2.666000000     3.725000000     1.753000000
H     2.047000000     3.358000000     2.384000000
H     3.340000000     4.139000000     2.293000000
O    -7.793000000     0.528000000    -1.719000000
H    -6.918000000     0.789000000    -1.432000000
H    -7.988000000    -0.259000000    -1.211000000
O    -2.619000000     0.785000000    -4.409000000
H    -1.717000000     1.022000000    -4.193000000
H    -2.581000000    -0.153000000    -4.600000000
O    -6.103000000     1.837000000    -3.737000000
H    -6.789000000     1.180000000    -3.619000000
H    -5.299000000     1.328000000    -3.843000000
O     3.597000000     3.058000000     5.988000000
H     4.417000000     3.037000000     5.493000000
H     3.729000000     3.746000000     6.640000000
O    -0.928000000    -5.217000000    -1.050000000
H    -0.086000000    -4.802000000    -0.863000000
H    -1.544000000    -4.786000000    -0.458000000
O     3.410000000     3.545000000    -3.091000000
H     3.381000000     3.313000000    -4.019000000
H     2.623000000     4.072000000    -2.951000000
O     0.139000000    -4.588000000    -4.858000000
H    -0.585000000    -3.990000000    -4.673000000
H     0.851000000    -4.019000000    -5.150000000
O     7.118000000    -0.780000000     0.712000000
H     6.429000000    -1.383000000     0.432000000
H     6.646000000    -0.005000000     1.020000000
O     4.419000000     0.115000000     3.786000000
H     4.540000000     0.328000000     2.860000000
H     5.181000000     0.495000000     4.221000000
O    -3.015000000    -0.159000000     4.119000000
H    -2.308000000    -0.526000000     4.649000000
H    -2.776000000    -0.375000000     3.218000000
O    -0.311000000     2.081000000    -3.785000000
H    -0.538000000     2.985000000    -4.003000000
H     0.262000000     2.156000000    -3.022000000
O    -2.978000000     2.197000000    -1.757000000
H    -2.788000000     1.758000000    -2.586000000
H    -3.545000000     1.585000000    -1.287000000
O    -1.559000000    -2.306000000    -4.823000000
H    -1.723000000    -1.978000000    -3.938000000
H    -1.164000000    -1.565000000    -5.283000000
O    -5.625000000    -2.502000000     0.716000000
H    -5.068000000    -1.958000000     0.158000000
H    -5.011000000    -3.030000000     1.225000000
O    -3.547000000    -3.956000000     3.173000000
H    -4.464000000    -4.150000000     3.368000000
H    -3.061000000    -4.331000000     3.908000000
O     1.596000000    -2.399000000    -5.247000000
H     1.107000000    -1.852000000    -5.861000000
H     2.504000000    -2.339000000    -5.544000000
O    -3.099000000     3.144000000     2.327000000
H    -2.612000000     3.900000000     1.999000000
H    -3.977000000     3.248000000     1.959000000
O    -4.927000000    -5.808000000     0.222000000
H    -4.771000000    -6.415000000    -0.501000000
H    -4.073000000    -5.406000000     0.386000000
O    -2.718000000     2.550000000     5.011000000
H    -2.936000000     2.805000000     4.114000000
H    -2.766000000     1.594000000     5.006000000
O    -2.802000000    -4.156000000     0.472000000
H    -2.960000000    -3.905000000     1.382000000
H    -3.140000000    -3.423000000    -0.041000000
O    -5.677000000    -4.489000000    -2.192000000
H    -5.660000000    -4.607000000    -1.242000000
H    -4.758000000    -4.379000000    -2.436000000
O    -3.640000000    -4.194000000    -5.466000000
H    -2.717000000    -3.952000000    -5.546000000
H    -3.644000000    -4.922000000    -4.844000000
O     5.166000000    -1.788000000    -1.316000000
H     4.401000000    -1.666000000    -1.878000000
H     5.846000000    -2.116000000    -1.905000000
O     5.854000000     2.505000000     4.249000000
H     6.511000000     2.198000000     3.624000000
H     5.484000000     3.288000000     3.841000000
O     1.677000000    -2.907000000     2.565000000
H     1.369000000    -2.007000000     2.664000000
H     0.899000000    -3.445000000     2.710000000
O    -2.748000000    -4.194000000    -2.579000000
H    -2.698000000    -3.238000000    -2.574000000
H    -1.870000000    -4.481000000    -2.328000000
O    -0.774000000    -1.052000000     5.449000000
H    -0.630000000    -1.984000000     5.615000000
H     0.086000000    -0.651000000     5.578000000
O     4.795000000     1.008000000     1.321000000
H     4.851000000     0.752000000     0.400000000
H     5.161000000     1.892000000     1.347000000
O     4.674000000     5.063000000     3.307000000
H     5.560000000     5.206000000     2.972000000
H     4.284000000     5.936000000     3.336000000
O    -5.346000000     0.061000000    -0.735000000
H    -4.684000000    -0.574000000    -1.011000000
H    -5.253000000     0.105000000     0.217000000
O     2.485000000     5.952000000     0.329000000
H     2.533000000     5.210000000     0.933000000
H     2.972000000     5.664000000    -0.443000000
O     4.970000000     1.900000000    -1.701000000
H     4.181000000     2.326000000    -2.034000000
H     5.319000000     1.421000000    -2.453000000
O    -0.743000000     5.506000000     2.098000000
H    -0.390000000     5.066000000     1.325000000
H    -0.058000000     6.123000000     2.356000000
O     0.074000000     3.568000000     0.137000000
H     0.990000000     3.368000000     0.330000000
H    -0.263000000     2.774000000    -0.277000000
O    -7.863000000    -1.053000000     0.649000000
H    -8.394000000    -1.552000000     1.270000000
H    -7.043000000    -1.543000000     0.587000000
O     7.040000000     2.700000000     1.568000000
H     7.871000000     2.273000000     1.772000000
H     7.210000000     3.182000000     0.758000000
