158
-3046.23950
C     0.022000000    -1.281000000    -0.673000000
H     0.127000000    -2.119000000    -1.357000000
C     1.043000000    -0.327000000    -0.680000000
H     1.931000000    -0.481000000    -1.288000000
C     0.880000000     0.862000000    -0.039000000
H     1.583000000     1.712000000    -0.057000000
C    -0.322000000     1.008000000     0.738000000
H    -0.378000000     1.906000000     1.348000000
C    -1.349000000     0.022000000     0.788000000
H    -2.250000000     0.174000000     1.377000000
C    -1.176000000    -1.121000000    -0.029000000
C    -2.214000000    -2.184000000    -0.193000000
O    -3.118000000    -2.290000000     0.638000000
O    -2.197000000    -2.893000000    -1.161000000
O     4.352000000     0.135000000    -1.829000000
H     3.820000000     0.823000000    -2.230000000
H     4.316000000     0.320000000    -0.891000000
O    -0.291000000     4.958000000    -0.426000000
H     0.655000000     4.870000000    -0.538000000
H    -0.432000000     4.849000000     0.515000000
O    -1.977000000    -3.686000000     2.682000000
H    -2.290000000    -4.587000000     2.760000000
H    -2.273000000    -3.404000000     1.816000000
O    -3.879000000     0.185000000    -2.745000000
H    -4.770000000     0.534000000    -2.706000000
H    -3.996000000    -0.753000000    -2.895000000
O    -4.575000000    -0.978000000     2.303000000
H    -3.881000000    -1.478000000     1.873000000
H    -4.988000000    -1.604000000     2.897000000
O    -1.183000000     0.272000000    -3.050000000
H    -2.112000000     0.049000000    -2.991000000
H    -0.811000000    -0.030000000    -2.221000000
O     5.670000000    -1.846000000    -3.068000000
H     4.894000000    -2.085000000    -3.577000000
H     5.481000000    -0.967000000    -2.742000000
O    -2.667000000     1.116000000     5.441000000
H    -3.565000000     1.152000000     5.109000000
H    -2.724000000     0.573000000     6.227000000
O    -6.211000000    -3.888000000    -2.858000000
H    -5.293000000    -3.804000000    -3.114000000
H    -6.700000000    -3.724000000    -3.665000000
O     3.278000000     3.061000000     2.450000000
H     2.666000000     2.714000000     3.099000000
H     2.962000000     3.946000000     2.271000000
O    -0.670000000    -2.792000000    -5.215000000
H    -0.178000000    -3.387000000    -5.781000000
H    -0.002000000    -2.350000000    -4.692000000
O     6.482000000     2.625000000    -2.772000000
H     6.364000000     1.679000000    -2.862000000
H     6.063000000     2.994000000    -3.549000000
O     5.255000000     4.767000000    -1.517000000
H     5.707000000     4.044000000    -1.952000000
H     4.988000000     5.347000000    -2.230000000
O     1.500000000     3.064000000    -4.860000000
H     0.562000000     3.240000000    -4.791000000
H     1.772000000     3.520000000    -5.656000000
O    -4.375000000     2.648000000     1.432000000
H    -4.946000000     3.417000000     1.455000000
H    -4.974000000     1.904000000     1.499000000
O     2.017000000     0.106000000     2.547000000
H     1.793000000     0.194000000     1.621000000
H     2.741000000    -0.520000000     2.561000000
O     2.371000000     5.318000000    -0.832000000
H     3.105000000     4.758000000    -0.579000000
H     2.649000000     5.720000000    -1.655000000
O    -6.499000000     0.902000000     1.563000000
H    -5.848000000     0.234000000     1.778000000
H    -7.321000000     0.419000000     1.483000000
O    -6.730000000    -5.445000000    -0.764000000
H    -6.650000000    -4.839000000    -1.500000000
H    -6.201000000    -5.052000000    -0.071000000
O     4.884000000    -2.372000000     0.090000000
H     5.793000000    -2.621000000     0.252000000
H     4.905000000    -1.921000000    -0.754000000
O    -5.254000000     0.712000000     4.690000000
H    -5.220000000     0.279000000     3.838000000
H    -5.985000000     0.292000000     5.143000000
O    -2.673000000     5.519000000    -1.678000000
H    -2.926000000     4.607000000    -1.821000000
H    -1.905000000     5.468000000    -1.109000000
O    -3.557000000    -5.108000000    -2.118000000
H    -3.252000000    -5.717000000    -1.445000000
H    -3.122000000    -4.282000000    -1.909000000
O     0.659000000     4.152000000     3.347000000
H    -0.297000000     4.174000000     3.299000000
H     0.862000000     3.281000000     3.686000000
O     4.291000000     1.059000000     0.743000000
H     3.881000000     1.645000000     1.380000000
H     5.214000000     1.040000000     0.994000000
O    -4.870000000    -6.196000000    -4.406000000
H    -4.063000000    -6.658000000    -4.633000000
H    -4.632000000    -5.656000000    -3.652000000
O     2.290000000    -4.495000000    -2.665000000
H     2.176000000    -4.491000000    -1.714000000
H     2.925000000    -5.192000000    -2.827000000
O    -0.614000000     2.861000000     6.084000000
H     0.019000000     2.174000000     5.875000000
H    -1.468000000     2.452000000     5.939000000
O     0.658000000    -4.970000000     2.197000000
H    -0.113000000    -4.553000000     1.812000000
H     1.395000000    -4.617000000     1.699000000
O     4.360000000     1.072000000     4.789000000
H     4.544000000     0.401000000     4.132000000
H     5.005000000     1.758000000     4.619000000
O    -0.127000000    -1.875000000     4.081000000
H    -0.206000000    -2.590000000     3.450000000
H     0.547000000    -1.303000000     3.713000000
O     3.150000000     6.079000000    -3.563000000
H     2.330000000     5.640000000    -3.790000000
H     3.411000000     6.530000000    -4.366000000
O     1.077000000    -0.446000000    -4.286000000
H     0.205000000    -0.177000000    -3.998000000
H     1.253000000     0.094000000    -5.057000000
O    -5.475000000    -3.693000000     1.202000000
H    -4.683000000    -3.238000000     0.914000000
H    -6.151000000    -3.016000000     1.212000000
O    -2.071000000     3.231000000     3.386000000
H    -2.453000000     2.880000000     4.190000000
H    -2.519000000     2.761000000     2.683000000
O    -7.652000000    -2.147000000     1.383000000
H    -7.489000000    -2.362000000     2.301000000
H    -8.606000000    -2.127000000     1.306000000
O     2.528000000     6.150000000     3.555000000
H     2.566000000     6.918000000     4.125000000
H     1.866000000     5.587000000     3.957000000
O     2.781000000    -4.277000000     0.300000000
H     3.414000000    -3.562000000     0.235000000
H     3.318000000    -5.068000000     0.353000000
O    -0.147000000     5.251000000    -3.187000000
H    -0.327000000     5.189000000    -2.249000000
H    -0.693000000     4.571000000    -3.581000000
O    -4.368000000    -6.029000000     2.956000000
H    -4.297000000    -6.855000000     2.479000000
H    -4.842000000    -5.448000000     2.360000000
O     1.568000000     1.742000000     4.586000000
H     2.368000000     1.375000000     4.963000000
H     1.291000000     1.095000000     3.936000000
O    -3.380000000     2.624000000    -1.171000000
H    -3.571000000     2.745000000    -0.240000000
H    -3.391000000     1.676000000    -1.296000000
O     2.561000000     1.776000000    -2.960000000
H     2.001000000     1.007000000    -3.064000000
H     2.208000000     2.416000000    -3.578000000
O     4.175000000    -1.567000000     2.845000000
H     4.221000000    -2.152000000     3.601000000
H     4.535000000    -2.081000000     2.122000000
O     5.324000000     5.244000000     1.235000000
H     5.011000000     4.886000000     0.404000000
H     6.277000000     5.257000000     1.147000000
O    -3.591000000    -2.329000000    -3.446000000
H    -2.875000000    -2.471000000    -2.827000000
H    -3.400000000    -2.921000000    -4.174000000
O    -2.407000000    -7.107000000    -0.675000000
H    -2.611000000    -8.008000000    -0.928000000
H    -1.523000000    -6.959000000    -1.010000000
O     3.089000000    -2.536000000    -4.174000000
H     2.654000000    -3.288000000    -3.771000000
H     2.495000000    -1.802000000    -4.014000000
