158
-3017.25354
C    -0.609000000    -1.190000000    -0.580000000
H    -1.076000000    -1.997000000    -1.139000000
C     0.174000000    -0.261000000    -1.298000000
H     0.436000000    -0.357000000    -2.348000000
C     0.724000000     0.816000000    -0.577000000
H     1.298000000     1.499000000    -1.105000000
C     0.493000000     0.919000000     0.806000000
H     0.828000000     1.784000000     1.373000000
C    -0.334000000     0.010000000     1.428000000
H    -0.479000000     0.145000000     2.497000000
C    -0.943000000    -0.979000000     0.731000000
C    -1.808000000    -2.060000000     1.445000000
O    -2.273000000    -1.750000000     2.500000000
O    -2.072000000    -3.071000000     0.823000000
O     3.948000000    -0.592000000    -2.383000000
H     4.817000000    -0.532000000    -2.781000000
H     3.562000000     0.273000000    -2.518000000
O     4.369000000     2.556000000    -2.366000000
H     4.180000000     2.577000000    -3.304000000
H     4.935000000     3.313000000    -2.219000000
O     0.707000000    -6.401000000    -3.045000000
H     0.317000000    -5.968000000    -2.285000000
H     1.399000000    -6.951000000    -2.679000000
O     0.076000000    -4.358000000     4.754000000
H     0.398000000    -4.403000000     3.854000000
H    -0.243000000    -3.460000000     4.850000000
O    -2.525000000     0.945000000     3.723000000
H    -2.947000000     0.119000000     3.487000000
H    -2.552000000     1.466000000     2.921000000
O    -6.219000000    -0.281000000    -0.854000000
H    -6.929000000    -0.873000000    -1.104000000
H    -5.499000000    -0.861000000    -0.608000000
O    -2.802000000    -2.957000000    -3.092000000
H    -2.376000000    -2.572000000    -3.858000000
H    -3.015000000    -3.851000000    -3.361000000
O    -6.635000000     0.022000000     2.359000000
H    -6.278000000    -0.182000000     1.494000000
H    -6.476000000    -0.769000000     2.875000000
O    -2.560000000     0.192000000    -3.366000000
H    -1.744000000     0.165000000    -3.867000000
H    -2.882000000    -0.709000000    -3.385000000
O     0.603000000     1.046000000     7.160000000
H     1.404000000     0.688000000     6.777000000
H     0.015000000     1.168000000     6.415000000
O     1.287000000    -3.866000000    -4.252000000
H     0.766000000    -4.616000000    -3.967000000
H     1.749000000    -3.582000000    -3.464000000
O     6.318000000     0.553000000    -3.306000000
H     5.922000000     1.376000000    -3.017000000
H     6.657000000     0.745000000    -4.181000000
O    -0.068000000     0.559000000    -5.316000000
H    -0.632000000     0.263000000    -6.030000000
H     0.571000000    -0.146000000    -5.207000000
O     0.560000000     4.210000000     2.526000000
H     0.820000000     3.598000000     3.215000000
H     0.259000000     4.987000000     2.997000000
O     1.873000000    -1.321000000    -5.148000000
H     2.789000000    -1.136000000    -5.356000000
H     1.879000000    -2.217000000    -4.813000000
O    -0.256000000     6.783000000    -0.737000000
H     0.222000000     6.350000000    -1.444000000
H    -0.673000000     6.068000000    -0.257000000
O    -1.360000000     4.277000000     0.390000000
H    -1.567000000     3.417000000     0.024000000
H    -0.839000000     4.086000000     1.170000000
O     2.929000000    -1.535000000     0.821000000
H     2.218000000    -1.011000000     0.452000000
H     2.631000000    -2.440000000     0.730000000
O    -1.408000000     2.982000000     4.877000000
H    -2.101000000     3.601000000     5.107000000
H    -1.873000000     2.217000000     4.540000000
O    -6.437000000    -3.732000000    -1.868000000
H    -7.002000000    -3.085000000    -2.289000000
H    -6.114000000    -3.293000000    -1.081000000
O     2.162000000    -2.934000000    -1.990000000
H     2.133000000    -3.252000000    -1.088000000
H     2.614000000    -2.092000000    -1.933000000
O    -4.450000000    -3.005000000     6.243000000
H    -4.377000000    -3.118000000     5.295000000
H    -3.665000000    -2.514000000     6.486000000
O     1.229000000     2.633000000    -3.936000000
H     2.147000000     2.365000000    -3.965000000
H     0.760000000     1.931000000    -4.388000000
O    -1.850000000     1.968000000    -1.434000000
H    -2.276000000     1.512000000    -2.160000000
H    -1.044000000     1.474000000    -1.281000000
O    -2.173000000     2.982000000    -5.195000000
H    -1.218000000     2.916000000    -5.207000000
H    -2.470000000     2.255000000    -5.742000000
O    -2.653000000     4.300000000    -2.690000000
H    -2.555000000     3.843000000    -3.525000000
H    -2.216000000     3.733000000    -2.054000000
O    -1.144000000    -4.811000000    -1.659000000
H    -1.514000000    -4.190000000    -1.032000000
H    -1.042000000    -4.305000000    -2.466000000
O    -2.121000000    -6.654000000     3.867000000
H    -1.513000000    -5.971000000     4.150000000
H    -2.595000000    -6.263000000     3.132000000
O    -4.632000000    -5.262000000    -0.732000000
H    -4.547000000    -6.059000000    -1.256000000
H    -5.268000000    -4.729000000    -1.209000000
O     2.634000000     2.298000000     4.528000000
H     3.002000000     1.461000000     4.812000000
H     3.305000000     2.673000000     3.957000000
O    -1.252000000    -1.863000000     5.036000000
H    -1.682000000    -1.253000000     5.635000000
H    -1.588000000    -1.627000000     4.171000000
O     4.928000000     0.440000000     0.921000000
H     4.321000000    -0.285000000     1.069000000
H     5.104000000     0.417000000    -0.020000000
O    -3.020000000    -5.566000000    -3.562000000
H    -2.287000000    -5.669000000    -2.954000000
H    -3.415000000    -6.436000000    -3.610000000
O     3.486000000     4.054000000    -0.334000000
H     3.420000000     3.384000000    -1.015000000
H     2.665000000     4.541000000    -0.397000000
O     2.173000000    -4.296000000     0.389000000
H     1.473000000    -4.714000000     0.892000000
H     2.839000000    -4.977000000     0.294000000
O    -1.560000000    -1.938000000    -5.217000000
H    -1.016000000    -2.675000000    -5.495000000
H    -1.734000000    -1.451000000    -6.022000000
O     4.731000000     2.366000000     2.804000000
H     5.453000000     2.851000000     2.404000000
H     4.511000000     1.691000000     2.162000000
O    -3.137000000    -5.441000000     1.468000000
H    -3.799000000    -5.193000000     0.822000000
H    -2.574000000    -4.670000000     1.541000000
O     3.475000000     4.914000000     2.844000000
H     2.885000000     4.522000000     2.200000000
H     4.065000000     4.202000000     3.093000000
O     0.805000000     4.480000000    -2.144000000
H     0.333000000     3.970000000    -1.486000000
H     0.895000000     3.886000000    -2.889000000
O     3.723000000     1.692000000    -4.882000000
H     3.655000000     2.357000000    -5.566000000
H     3.895000000     0.878000000    -5.355000000
O     5.792000000     4.174000000     1.048000000
H     6.224000000     3.399000000     0.689000000
H     4.969000000     4.235000000     0.563000000
O     1.020000000     6.836000000    -3.707000000
H     1.018000000     6.036000000    -3.182000000
H     1.749000000     7.349000000    -3.358000000
O    -3.340000000     1.809000000     1.334000000
H    -4.173000000     2.126000000     0.986000000
H    -2.985000000     1.256000000     0.637000000
O    -4.714000000    -3.145000000     3.477000000
H    -5.494000000    -3.338000000     2.957000000
H    -4.056000000    -2.884000000     2.834000000
O    -4.221000000    -2.193000000    -0.705000000
H    -3.542000000    -2.522000000    -0.116000000
H    -3.790000000    -2.134000000    -1.558000000
O    -0.219000000    -5.665000000     1.464000000
H    -0.910000000    -5.560000000     0.810000000
H     0.249000000    -6.454000000     1.192000000
O     3.331000000    -2.459000000     3.735000000
H     2.956000000    -3.325000000     3.893000000
H     2.870000000    -2.136000000     2.961000000
