158
-3052.31292
C     0.470000000    -1.402000000    -0.225000000
H     0.950000000    -2.358000000    -0.416000000
C     1.177000000    -0.215000000    -0.503000000
H     2.118000000    -0.426000000    -1.005000000
C     0.596000000     1.020000000    -0.326000000
H     1.100000000     1.922000000    -0.559000000
C    -0.671000000     1.088000000     0.254000000
H    -1.110000000     2.075000000     0.373000000
C    -1.404000000    -0.074000000     0.567000000
H    -2.393000000     0.022000000     1.007000000
C    -0.752000000    -1.279000000     0.400000000
C    -1.512000000    -2.536000000     0.790000000
O    -2.558000000    -2.369000000     1.439000000
O    -1.192000000    -3.609000000     0.332000000
O     2.184000000    -0.960000000    -4.275000000
H     1.258000000    -1.084000000    -4.067000000
H     2.391000000    -0.088000000    -3.938000000
O     2.964000000     1.401000000    -3.506000000
H     3.376000000     1.843000000    -4.248000000
H     2.795000000     2.099000000    -2.874000000
O     7.022000000    -0.117000000     0.093000000
H     6.118000000    -0.278000000     0.364000000
H     7.471000000    -0.947000000     0.252000000
O     4.274000000     2.457000000     1.330000000
H     4.735000000     1.838000000     0.764000000
H     4.389000000     2.106000000     2.213000000
O     2.637000000     5.565000000     3.192000000
H     2.062000000     5.741000000     3.936000000
H     3.375000000     6.163000000     3.313000000
O    -5.061000000    -0.883000000     2.267000000
H    -4.487000000    -1.625000000     2.079000000
H    -4.681000000    -0.154000000     1.777000000
O     0.857000000    -6.327000000    -1.617000000
H     1.504000000    -5.917000000    -1.043000000
H     0.786000000    -7.226000000    -1.295000000
O     3.452000000    -2.830000000    -0.090000000
H     3.491000000    -2.847000000    -1.047000000
H     3.023000000    -3.652000000     0.147000000
O     3.222000000    -3.231000000    -3.277000000
H     2.462000000    -3.798000000    -3.405000000
H     2.931000000    -2.369000000    -3.574000000
O     5.106000000    -0.652000000    -4.494000000
H     5.145000000    -0.109000000    -5.281000000
H     4.288000000    -0.397000000    -4.067000000
O    -5.097000000     1.228000000     0.434000000
H    -6.014000000     0.963000000     0.503000000
H    -4.790000000     0.820000000    -0.376000000
O    -2.656000000    -4.959000000    -4.385000000
H    -3.232000000    -5.634000000    -4.026000000
H    -2.291000000    -4.522000000    -3.615000000
O    -4.269000000     3.555000000     1.165000000
H    -4.570000000     2.679000000     0.923000000
H    -3.784000000     3.426000000     1.980000000
O    -4.537000000    -0.098000000    -1.982000000
H    -5.353000000    -0.572000000    -2.139000000
H    -3.861000000    -0.646000000    -2.380000000
O     1.528000000     1.217000000     2.693000000
H     0.763000000     1.090000000     2.131000000
H     1.994000000     0.381000000     2.655000000
O    -3.213000000     6.006000000     1.862000000
H    -4.045000000     6.468000000     1.759000000
H    -3.396000000     5.114000000     1.567000000
O     6.026000000     4.398000000     0.170000000
H     5.793000000     5.037000000    -0.504000000
H     5.262000000     3.825000000     0.230000000
O    -1.880000000    -5.221000000     5.451000000
H    -1.909000000    -6.138000000     5.179000000
H    -2.544000000    -4.789000000     4.913000000
O    -0.396000000    -1.949000000    -3.829000000
H    -1.212000000    -2.026000000    -4.324000000
H    -0.379000000    -2.729000000    -3.274000000
O    -3.576000000     2.495000000    -2.525000000
H    -3.525000000     2.268000000    -3.453000000
H    -3.707000000     1.658000000    -2.080000000
O    -3.939000000     2.465000000     4.020000000
H    -4.623000000     1.824000000     3.831000000
H    -3.465000000     2.098000000     4.767000000
O     0.670000000    -4.810000000     1.852000000
H     0.018000000    -4.493000000     1.227000000
H     0.320000000    -5.645000000     2.162000000
O     1.422000000     1.345000000    -6.696000000
H     0.855000000     1.793000000    -6.069000000
H     2.221000000     1.873000000    -6.716000000
O    -1.986000000    -6.640000000     1.976000000
H    -2.212000000    -6.856000000     2.881000000
H    -1.133000000    -7.051000000     1.837000000
O    -5.504000000    -3.675000000     4.266000000
H    -5.958000000    -3.267000000     3.529000000
H    -4.856000000    -4.250000000     3.859000000
O     4.619000000    -0.556000000     0.907000000
H     4.350000000    -0.264000000     1.778000000
H     3.966000000    -1.212000000     0.662000000
O     2.626000000     3.725000000    -2.216000000
H     2.678000000     3.905000000    -1.277000000
H     1.895000000     4.261000000    -2.523000000
O     1.880000000     2.939000000     4.803000000
H     1.064000000     3.399000000     4.997000000
H     1.755000000     2.591000000     3.920000000
O    -0.310000000    -2.173000000     4.546000000
H    -1.040000000    -2.134000000     3.928000000
H    -0.310000000    -3.078000000     4.858000000
O     1.736000000    -1.607000000     2.668000000
H     1.063000000    -1.487000000     3.337000000
H     1.489000000    -2.418000000     2.222000000
O    -0.777000000     4.075000000     2.247000000
H    -1.159000000     4.819000000     1.782000000
H     0.072000000     3.940000000     1.828000000
O     0.024000000     2.933000000    -4.347000000
H     0.112000000     2.223000000    -3.711000000
H     0.161000000     3.730000000    -3.836000000
O    -2.580000000     2.049000000    -5.144000000
H    -2.443000000     1.683000000    -6.018000000
H    -1.946000000     1.592000000    -4.591000000
O    -1.189000000    -4.312000000    -2.201000000
H    -1.346000000    -4.061000000    -1.291000000
H    -0.618000000    -5.078000000    -2.143000000
O     5.058000000     5.600000000    -2.092000000
H     5.344000000     6.191000000    -2.788000000
H     4.391000000     5.051000000    -2.503000000
O    -1.016000000     3.994000000     4.985000000
H    -1.681000000     3.381000000     5.300000000
H    -1.187000000     4.073000000     4.047000000
O     0.805000000     6.573000000     1.429000000
H     1.213000000     6.271000000     0.618000000
H     1.350000000     6.204000000     2.124000000
O     1.478000000    -5.009000000    -4.163000000
H     1.418000000    -5.584000000    -3.399000000
H     2.211000000    -5.359000000    -4.669000000
O     2.835000000    -5.591000000     0.456000000
H     2.114000000    -5.266000000     0.994000000
H     3.256000000    -6.259000000     0.997000000
O    -0.876000000     0.545000000    -3.011000000
H    -0.344000000     0.462000000    -2.219000000
H    -0.887000000    -0.337000000    -3.384000000
O    -6.493000000    -2.187000000    -1.259000000
H    -6.973000000    -2.086000000    -0.437000000
H    -5.697000000    -2.657000000    -1.015000000
O     2.292000000     4.152000000     0.861000000
H     2.826000000     3.362000000     0.944000000
H     2.431000000     4.623000000     1.683000000
O     0.124000000     4.782000000    -2.364000000
H    -0.620000000     4.451000000    -1.860000000
H    -0.136000000     5.667000000    -2.621000000
O    -2.898000000     4.598000000    -0.930000000
H    -3.107000000     4.149000000    -1.750000000
H    -3.259000000     4.031000000    -0.249000000
O    -4.511000000    -3.699000000    -0.107000000
H    -3.830000000    -3.373000000     0.482000000
H    -4.036000000    -4.209000000    -0.763000000
O    -3.141000000    -6.160000000    -0.583000000
H    -2.603000000    -6.151000000     0.209000000
H    -2.798000000    -6.891000000    -1.097000000
O    -6.787000000    -4.210000000     1.454000000
H    -5.862000000    -4.156000000     1.213000000
H    -7.185000000    -4.734000000     0.759000000
O    -3.050000000    -4.415000000     2.971000000
H    -2.466000000    -5.049000000     2.555000000
H    -2.831000000    -3.580000000     2.556000000
