158
-3012.76561
C    -0.752000000    -1.276000000     0.097000000
H    -1.286000000    -2.223000000     0.096000000
C     0.258000000    -0.960000000    -0.812000000
H     0.629000000    -1.733000000    -1.480000000
C     0.916000000     0.262000000    -0.816000000
H     1.627000000     0.467000000    -1.598000000
C     0.590000000     1.146000000     0.203000000
H     1.133000000     2.087000000     0.160000000
C    -0.487000000     0.924000000     1.083000000
H    -0.736000000     1.682000000     1.822000000
C    -1.119000000    -0.312000000     1.112000000
C    -2.269000000    -0.579000000     2.055000000
O    -2.736000000     0.372000000     2.691000000
O    -2.846000000    -1.629000000     1.997000000
O     5.158000000     4.703000000    -0.755000000
H     4.263000000     4.583000000    -1.073000000
H     5.335000000     3.917000000    -0.237000000
O     0.979000000     0.804000000     3.629000000
H     0.192000000     0.728000000     4.169000000
H     1.032000000     1.735000000     3.413000000
O    -1.593000000     2.407000000    -4.036000000
H    -2.446000000     1.976000000    -3.978000000
H    -1.788000000     3.275000000    -4.389000000
O    -4.288000000    -1.998000000    -0.358000000
H    -4.490000000    -2.933000000    -0.401000000
H    -3.629000000    -1.927000000     0.332000000
O    -1.474000000    -3.505000000    -3.583000000
H    -1.013000000    -4.036000000    -2.933000000
H    -2.018000000    -4.130000000    -4.061000000
O    -3.163000000     2.917000000     3.813000000
H    -3.699000000     3.409000000     3.192000000
H    -2.939000000     2.110000000     3.350000000
O    -2.967000000    -6.869000000     1.235000000
H    -2.691000000    -5.953000000     1.218000000
H    -2.793000000    -7.189000000     0.350000000
O     4.083000000     2.417000000     0.859000000
H     3.617000000     3.073000000     1.377000000
H     3.397000000     1.977000000     0.357000000
O     1.129000000    -3.092000000     3.111000000
H     1.425000000    -2.537000000     2.390000000
H     0.685000000    -3.824000000     2.683000000
O     4.607000000    -0.100000000    -6.344000000
H     4.888000000    -0.253000000    -5.441000000
H     4.899000000     0.791000000    -6.538000000
O     2.463000000     4.394000000    -1.542000000
H     1.903000000     5.102000000    -1.220000000
H     1.912000000     3.916000000    -2.161000000
O    -6.583000000    -0.452000000    -0.627000000
H    -6.564000000    -0.172000000    -1.543000000
H    -5.792000000    -0.980000000    -0.522000000
O     1.985000000     6.446000000     0.408000000
H     1.286000000     6.114000000     0.971000000
H     1.551000000     6.647000000    -0.421000000
O     1.088000000     3.481000000     2.850000000
H     1.844000000     4.059000000     2.744000000
H     0.338000000     4.074000000     2.899000000
O     4.567000000    -0.769000000     2.497000000
H     3.732000000    -0.957000000     2.069000000
H     4.337000000    -0.619000000     3.414000000
O     1.137000000    -4.466000000    -2.548000000
H     1.121000000    -5.330000000    -2.961000000
H     2.037000000    -4.365000000    -2.240000000
O     3.247000000     4.698000000     1.994000000
H     4.083000000     4.981000000     2.363000000
H     3.039000000     5.361000000     1.336000000
O    -7.155000000     0.271000000     5.589000000
H    -7.347000000    -0.464000000     6.172000000
H    -6.408000000    -0.026000000     5.069000000
O    -5.398000000    -2.411000000     6.098000000
H    -4.509000000    -2.275000000     5.770000000
H    -5.343000000    -3.217000000     6.612000000
O    -1.470000000     0.086000000    -6.809000000
H    -0.848000000    -0.036000000    -6.091000000
H    -1.836000000     0.958000000    -6.662000000
O    -2.541000000     0.772000000    -1.860000000
H    -2.524000000    -0.081000000    -2.294000000
H    -2.093000000     0.626000000    -1.027000000
O     2.313000000     0.422000000    -4.346000000
H     2.930000000     1.153000000    -4.374000000
H     2.744000000    -0.275000000    -4.840000000
O    -2.528000000    -4.265000000     1.282000000
H    -2.660000000    -3.331000000     1.448000000
H    -1.798000000    -4.509000000     1.850000000
O     0.754000000     3.303000000    -3.335000000
H    -0.173000000     3.064000000    -3.353000000
H     1.214000000     2.468000000    -3.246000000
O     3.717000000    -4.904000000    -1.842000000
H     3.819000000    -5.840000000    -1.669000000
H     4.611000000    -4.581000000    -1.948000000
O     0.253000000    -0.921000000    -4.961000000
H     0.994000000    -0.334000000    -4.810000000
H     0.205000000    -1.453000000    -4.167000000
O     2.041000000    -1.137000000     1.588000000
H     1.600000000    -0.483000000     2.129000000
H     1.803000000    -0.906000000     0.690000000
O    -5.224000000    -2.380000000     2.887000000
H    -5.037000000    -3.292000000     3.107000000
H    -4.376000000    -2.015000000     2.635000000
O     3.190000000    -0.270000000     4.935000000
H     2.451000000     0.064000000     4.426000000
H     3.646000000     0.515000000     5.239000000
O    -6.423000000     2.242000000     0.857000000
H    -5.907000000     1.821000000     1.545000000
H    -6.903000000     1.525000000     0.444000000
O    -5.657000000     0.528000000     2.868000000
H    -4.758000000     0.585000000     3.192000000
H    -5.703000000    -0.326000000     2.439000000
O     0.040000000    -5.528000000     1.914000000
H     0.909000000    -5.791000000     1.612000000
H     0.021000000    -5.778000000     2.837000000
O    -3.817000000     3.585000000     6.627000000
H    -4.649000000     3.184000000     6.877000000
H    -3.626000000     3.222000000     5.762000000
O     0.761000000    -1.586000000     6.095000000
H     1.573000000    -1.103000000     5.943000000
H     0.568000000    -2.001000000     5.254000000
O    -1.400000000     0.287000000     4.876000000
H    -1.962000000     0.425000000     5.639000000
H    -1.962000000     0.484000000     4.127000000
O     2.436000000     3.672000000    -5.583000000
H     3.257000000     3.399000000    -5.174000000
H     1.817000000     3.743000000    -4.855000000
O     4.320000000     2.451000000    -4.260000000
H     4.952000000     2.633000000    -4.955000000
H     4.837000000     2.038000000    -3.569000000
O    -0.790000000     4.268000000     0.436000000
H    -1.456000000     4.448000000    -0.228000000
H    -0.215000000     3.619000000     0.029000000
O    -2.951000000    -2.382000000     4.809000000
H    -2.132000000    -2.283000000     5.296000000
H    -2.887000000    -1.740000000     4.101000000
O     5.089000000    -1.037000000    -3.857000000
H     5.273000000    -0.369000000    -3.196000000
H     5.241000000    -1.868000000    -3.408000000
O    -1.453000000     4.870000000     2.875000000
H    -2.045000000     4.311000000     3.378000000
H    -1.344000000     4.412000000     2.041000000
O     6.030000000     1.367000000    -2.360000000
H     6.664000000     2.084000000    -2.340000000
H     6.480000000     0.639000000    -1.931000000
O    -5.803000000    -4.582000000     0.256000000
H    -6.465000000    -4.979000000     0.822000000
H    -4.970000000    -4.895000000     0.607000000
O    -4.210000000    -4.770000000     4.249000000
H    -3.748000000    -3.944000000     4.393000000
H    -4.912000000    -4.769000000     4.900000000
O     0.413000000     5.628000000    -4.748000000
H     0.317000000     4.926000000    -4.104000000
H     1.066000000     6.215000000    -4.368000000
O    -6.531000000     3.020000000     4.301000000
H    -5.965000000     2.926000000     3.534000000
H    -7.206000000     2.352000000     4.184000000
O    -3.037000000     0.181000000     7.041000000
H    -3.786000000     0.022000000     7.616000000
H    -2.272000000     0.047000000     7.600000000
O    -3.158000000    -1.458000000    -3.432000000
H    -3.926000000    -2.024000000    -3.354000000
H    -2.433000000    -2.059000000    -3.600000000
