158
-3056.23515
C    -0.993000000    -1.008000000    -0.099000000
H    -1.628000000    -1.885000000    -0.197000000
C    -0.041000000    -0.816000000    -1.073000000
H     0.010000000    -1.531000000    -1.890000000
C     0.868000000     0.264000000    -0.893000000
H     1.636000000     0.464000000    -1.605000000
C     0.774000000     0.986000000     0.258000000
H     1.427000000     1.833000000     0.451000000
C    -0.175000000     0.779000000     1.214000000
H    -0.144000000     1.352000000     2.137000000
C    -1.175000000    -0.206000000     0.994000000
C    -2.259000000    -0.516000000     2.084000000
O    -2.473000000     0.338000000     2.964000000
O    -2.742000000    -1.625000000     2.200000000
O     5.094000000     3.789000000     0.537000000
H     4.740000000     3.034000000     1.007000000
H     5.009000000     4.516000000     1.153000000
O    -0.511000000     3.114000000     6.338000000
H    -0.471000000     4.020000000     6.643000000
H    -0.938000000     3.167000000     5.483000000
O     1.187000000     6.631000000     1.316000000
H     0.515000000     5.974000000     1.132000000
H     0.723000000     7.321000000     1.790000000
O    -2.071000000     2.800000000    -4.608000000
H    -2.062000000     2.573000000    -5.538000000
H    -2.260000000     1.975000000    -4.161000000
O    -4.092000000    -1.832000000    -2.334000000
H    -4.292000000    -1.976000000    -1.409000000
H    -4.331000000    -2.655000000    -2.762000000
O    -0.253000000    -3.955000000    -4.750000000
H    -0.259000000    -4.459000000    -3.936000000
H    -0.968000000    -4.327000000    -5.267000000
O    -2.034000000     3.120000000     3.956000000
H    -2.078000000     3.478000000     3.070000000
H    -2.008000000     2.172000000     3.831000000
O    -6.337000000    -1.670000000     1.557000000
H    -5.782000000    -1.951000000     0.829000000
H    -5.935000000    -2.065000000     2.331000000
O     3.854000000    -0.890000000    -6.274000000
H     3.339000000    -1.667000000    -6.053000000
H     4.321000000    -1.133000000    -7.073000000
O     3.551000000    -0.245000000     4.453000000
H     3.101000000     0.565000000     4.215000000
H     4.122000000     0.003000000     5.180000000
O     1.516000000    -4.418000000     0.506000000
H     1.595000000    -3.470000000     0.609000000
H     2.379000000    -4.757000000     0.746000000
O     1.450000000     4.035000000     2.631000000
H     0.628000000     4.144000000     2.152000000
H     1.738000000     4.928000000     2.821000000
O    -0.414000000     4.391000000     0.605000000
H    -0.419000000     4.345000000    -0.351000000
H    -1.140000000     3.829000000     0.876000000
O     1.715000000    -5.253000000    -2.941000000
H     2.124000000    -4.855000000    -2.172000000
H     2.426000000    -5.728000000    -3.371000000
O     3.133000000     2.479000000     3.868000000
H     3.528000000     3.305000000     4.146000000
H     2.263000000     2.723000000     3.551000000
O     5.622000000    -3.263000000    -2.219000000
H     6.392000000    -3.599000000    -1.760000000
H     5.710000000    -2.311000000    -2.169000000
O     1.257000000     1.690000000    -6.811000000
H     1.638000000     2.010000000    -5.994000000
H     1.774000000     0.914000000    -7.029000000
O    -2.719000000     0.497000000    -3.073000000
H    -3.204000000    -0.281000000    -2.800000000
H    -1.863000000     0.163000000    -3.342000000
O     1.413000000     2.937000000    -3.854000000
H     0.560000000     3.345000000    -3.702000000
H     1.979000000     3.304000000    -3.176000000
O     0.752000000    -3.071000000     3.574000000
H     0.396000000    -2.399000000     4.155000000
H     1.318000000    -2.591000000     2.970000000
O     5.829000000    -0.034000000    -4.572000000
H     5.194000000    -0.225000000    -5.263000000
H     6.600000000    -0.550000000    -4.807000000
O    -2.563000000    -5.739000000     0.841000000
H    -2.114000000    -5.124000000     1.422000000
H    -2.002000000    -5.792000000     0.067000000
O    -0.590000000    -5.746000000    -1.040000000
H    -0.149000000    -6.025000000    -1.842000000
H    -0.045000000    -5.035000000    -0.702000000
O    -0.418000000    -2.002000000    -6.625000000
H    -0.495000000    -2.545000000    -5.841000000
H    -0.840000000    -1.177000000    -6.387000000
O    -0.671000000     4.707000000    -3.050000000
H    -1.247000000     4.221000000    -3.639000000
H    -1.197000000     5.453000000    -2.761000000
O    -0.045000000     0.506000000    -4.294000000
H     0.311000000     1.065000000    -3.604000000
H     0.063000000     1.018000000    -5.096000000
O     1.977000000    -1.858000000     0.923000000
H     1.256000000    -1.351000000     0.547000000
H     2.760000000    -1.344000000     0.725000000
O    -4.649000000    -2.522000000     3.981000000
H    -4.094000000    -3.097000000     4.508000000
H    -4.067000000    -2.184000000     3.301000000
O     4.713000000    -1.561000000     0.286000000
H     4.841000000    -2.367000000    -0.214000000
H     5.308000000    -0.931000000    -0.119000000
O    -5.583000000     1.011000000     0.166000000
H    -5.545000000     0.600000000     1.030000000
H    -5.898000000     0.318000000    -0.415000000
O    -4.956000000     1.140000000     3.620000000
H    -4.030000000     0.931000000     3.503000000
H    -5.353000000     0.316000000     3.904000000
O    -4.531000000     2.206000000     7.274000000
H    -4.164000000     2.162000000     8.157000000
H    -3.901000000     1.735000000     6.729000000
O     6.904000000     2.532000000    -1.314000000
H     6.301000000     3.045000000    -0.777000000
H     6.463000000     2.452000000    -2.160000000
O     0.049000000    -0.972000000     5.528000000
H     0.361000000    -0.186000000     5.977000000
H    -0.903000000    -0.875000000     5.508000000
O     5.502000000     2.306000000    -3.629000000
H     5.414000000     1.371000000    -3.815000000
H     5.551000000     2.717000000    -4.492000000
O     6.876000000    -0.289000000    -1.007000000
H     7.606000000    -0.693000000    -1.475000000
H     6.942000000     0.642000000    -1.219000000
O    -2.676000000    -1.030000000     5.500000000
H    -3.605000000    -1.101000000     5.720000000
H    -2.666000000    -0.743000000     4.587000000
O    -2.964000000     3.623000000     1.456000000
H    -3.449000000     2.797000000     1.447000000
H    -3.451000000     4.193000000     0.861000000
O    -1.518000000    -3.850000000     2.311000000
H    -1.936000000    -2.989000000     2.300000000
H    -0.759000000    -3.740000000     2.884000000
O     4.520000000     1.297000000     1.687000000
H     3.893000000     1.664000000     2.309000000
H     4.140000000     0.457000000     1.431000000
O     2.017000000    -2.596000000    -4.730000000
H     1.554000000    -1.764000000    -4.645000000
H     1.343000000    -3.261000000    -4.591000000
O    -4.556000000     4.533000000     4.120000000
H    -3.907000000     3.830000000     4.139000000
H    -4.858000000     4.555000000     3.212000000
O     3.837000000     3.629000000    -1.887000000
H     4.401000000     3.724000000    -1.119000000
H     4.274000000     2.967000000    -2.424000000
O    -4.100000000    -2.815000000     0.320000000
H    -3.886000000    -3.748000000     0.347000000
H    -3.610000000    -2.436000000     1.050000000
O    -3.179000000    -4.503000000     5.406000000
H    -3.028000000    -3.891000000     6.127000000
H    -2.364000000    -5.001000000     5.340000000
O    -3.034000000    -1.900000000    -4.995000000
H    -3.050000000    -2.856000000    -4.955000000
H    -3.516000000    -1.620000000    -4.217000000
O     4.182000000    -4.195000000    -4.624000000
H     3.327000000    -3.788000000    -4.763000000
H     4.524000000    -3.770000000    -3.837000000
O    -5.194000000    -5.819000000     2.333000000
H    -4.329000000    -5.554000000     2.022000000
H    -5.263000000    -5.433000000     3.207000000
