158
-3021.22459
C    -0.797000000     0.126000000     1.246000000
H    -1.491000000    -0.018000000     2.069000000
C    -0.808000000    -0.985000000     0.386000000
H    -1.415000000    -1.855000000     0.626000000
C     0.113000000    -0.972000000    -0.660000000
H     0.184000000    -1.870000000    -1.303000000
C     0.992000000     0.096000000    -0.924000000
H     1.703000000    -0.063000000    -1.731000000
C     0.869000000     1.228000000    -0.164000000
H     1.526000000     2.053000000    -0.427000000
C    -0.029000000     1.303000000     0.926000000
C    -0.334000000     2.501000000     1.723000000
O     0.621000000     3.221000000     1.901000000
O    -1.355000000     2.564000000     2.384000000
O    -1.005000000    -0.562000000    -4.510000000
H    -1.498000000    -0.157000000    -5.222000000
H    -0.426000000    -1.188000000    -4.945000000
O    -1.845000000    -0.031000000     6.677000000
H    -0.970000000    -0.156000000     6.310000000
H    -2.232000000     0.663000000     6.142000000
O     2.044000000    -4.270000000     2.970000000
H     2.120000000    -4.257000000     2.016000000
H     2.357000000    -3.409000000     3.247000000
O    -4.614000000    -0.251000000    -2.730000000
H    -4.841000000     0.468000000    -3.320000000
H    -3.746000000    -0.024000000    -2.399000000
O     1.189000000     5.169000000     0.127000000
H     0.862000000     4.877000000    -0.724000000
H     1.185000000     4.380000000     0.669000000
O     2.586000000     7.657000000     3.771000000
H     1.724000000     7.242000000     3.725000000
H     3.120000000     7.170000000     3.144000000
O    -2.110000000     6.523000000    -0.942000000
H    -2.204000000     7.211000000    -1.601000000
H    -1.236000000     6.659000000    -0.577000000
O     0.071000000     2.294000000     4.826000000
H    -0.472000000     2.446000000     4.052000000
H     0.577000000     3.100000000     4.926000000
O     0.477000000    -0.154000000     5.511000000
H     0.460000000     0.773000000     5.273000000
H     1.317000000    -0.272000000     5.954000000
O    -1.486000000     3.862000000    -1.423000000
H    -1.851000000     4.731000000    -1.257000000
H    -0.666000000     4.032000000    -1.887000000
O     0.632000000     7.716000000    -1.391000000
H     0.787000000     6.955000000    -0.830000000
H     1.135000000     7.534000000    -2.184000000
O     2.843000000     3.942000000     3.109000000
H     3.213000000     4.587000000     2.507000000
H     2.001000000     3.706000000     2.720000000
O    -3.704000000    -3.884000000     2.621000000
H    -3.553000000    -3.499000000     1.758000000
H    -3.373000000    -3.231000000     3.237000000
O    -3.591000000    -5.838000000    -0.047000000
H    -3.789000000    -6.514000000    -0.695000000
H    -4.404000000    -5.737000000     0.449000000
O     3.395000000     5.878000000     1.482000000
H     4.110000000     6.189000000     0.926000000
H     2.689000000     5.670000000     0.870000000
O     2.921000000    -0.161000000     3.090000000
H     2.151000000     0.379000000     2.914000000
H     3.409000000     0.326000000     3.754000000
O    -3.010000000     3.498000000     6.539000000
H    -2.750000000     4.403000000     6.368000000
H    -2.572000000     2.990000000     5.857000000
O    -3.941000000    -0.672000000     2.646000000
H    -4.103000000    -1.328000000     1.968000000
H    -4.111000000    -1.130000000     3.468000000
O     3.803000000    -6.455000000    -0.759000000
H     4.297000000    -5.640000000    -0.671000000
H     2.889000000    -6.194000000    -0.651000000
O     1.264000000    -5.635000000    -0.144000000
H     0.573000000    -5.174000000    -0.619000000
H     0.816000000    -6.362000000     0.287000000
O     0.951000000     4.918000000     5.981000000
H     0.421000000     5.118000000     6.752000000
H     0.527000000     5.397000000     5.269000000
O    -2.896000000    -2.615000000    -3.054000000
H    -3.815000000    -2.386000000    -2.913000000
H    -2.420000000    -1.797000000    -2.910000000
O     5.131000000    -4.023000000    -0.174000000
H     4.460000000    -3.438000000     0.177000000
H     5.856000000    -3.957000000     0.448000000
O     5.482000000    -0.241000000    -0.943000000
H     4.709000000    -0.518000000    -0.451000000
H     6.053000000     0.159000000    -0.287000000
O     3.853000000     1.464000000     4.995000000
H     3.633000000     2.371000000     4.784000000
H     3.428000000     1.304000000     5.838000000
O     4.695000000     1.969000000    -4.491000000
H     5.265000000     2.639000000    -4.869000000
H     4.803000000     2.069000000    -3.545000000
O     3.731000000    -1.561000000     0.665000000
H     2.973000000    -1.006000000     0.849000000
H     4.007000000    -1.882000000     1.524000000
O     0.664000000     4.777000000    -2.728000000
H     1.417000000     4.504000000    -3.253000000
H     0.232000000     5.446000000    -3.259000000
O     6.399000000    -1.189000000    -3.477000000
H     5.611000000    -0.967000000    -2.981000000
H     6.911000000    -1.736000000    -2.882000000
O     1.558000000    -6.791000000    -3.350000000
H     1.988000000    -6.009000000    -3.697000000
H     1.618000000    -6.695000000    -2.400000000
O    -3.057000000     4.839000000     1.546000000
H    -2.650000000     3.978000000     1.647000000
H    -2.507000000     5.291000000     0.906000000
O    -3.805000000    -2.017000000     4.944000000
H    -2.901000000    -2.131000000     5.237000000
H    -4.320000000    -2.007000000     5.751000000
O    -2.991000000     1.504000000     4.276000000
H    -2.415000000     1.659000000     3.527000000
H    -3.710000000     0.982000000     3.920000000
O     5.029000000     2.564000000    -1.757000000
H     5.861000000     2.929000000    -1.455000000
H     5.102000000     1.626000000    -1.582000000
O    -3.956000000    -4.775000000    -4.805000000
H    -4.449000000    -4.236000000    -4.186000000
H    -3.100000000    -4.350000000    -4.863000000
O    -0.772000000    -4.972000000    -1.652000000
H    -0.839000000    -5.327000000    -2.539000000
H    -1.667000000    -4.720000000    -1.426000000
O    -3.698000000     2.546000000    -0.281000000
H    -3.542000000     2.422000000     0.656000000
H    -2.823000000     2.582000000    -0.667000000
O     2.671000000     3.979000000    -4.864000000
H     2.952000000     3.073000000    -4.735000000
H     2.623000000     4.082000000    -5.815000000
O    -3.740000000    -2.202000000     0.288000000
H    -3.934000000    -2.668000000    -0.526000000
H    -3.689000000    -1.282000000     0.030000000
O    -4.500000000     5.731000000     3.424000000
H    -5.216000000     5.103000000     3.519000000
H    -3.977000000     5.389000000     2.698000000
O    -0.924000000    -2.758000000     4.855000000
H    -0.458000000    -1.931000000     4.982000000
H    -0.660000000    -3.049000000     3.982000000
O     3.377000000    -4.949000000    -4.490000000
H     3.792000000    -5.809000000    -4.429000000
H     4.105000000    -4.340000000    -4.613000000
O     0.295000000     5.998000000     3.497000000
H    -0.392000000     6.537000000     3.105000000
H     0.520000000     5.363000000     2.817000000
O     1.362000000    -2.950000000    -5.404000000
H     2.037000000    -3.405000000    -4.901000000
H     1.843000000    -2.503000000    -6.101000000
O    -5.509000000     1.291000000     2.006000000
H    -6.200000000     0.637000000     2.102000000
H    -4.703000000     0.822000000     2.221000000
O    -0.586000000    -4.598000000    -4.642000000
H     0.194000000    -4.168000000    -4.994000000
H    -0.907000000    -3.997000000    -3.969000000
O     3.765000000     4.846000000     5.669000000
H     2.838000000     4.683000000     5.842000000
H     3.821000000     4.924000000     4.716000000
O    -2.082000000     0.537000000    -2.005000000
H    -1.559000000     0.222000000    -2.741000000
H    -1.483000000     0.516000000    -1.258000000
