158
-3048.51886
C     0.017000000    -0.898000000     1.159000000
H     0.327000000    -1.571000000     1.954000000
C     0.798000000    -1.016000000     0.009000000
H     1.666000000    -1.670000000     0.027000000
C     0.714000000    -0.065000000    -1.000000000
H     1.403000000    -0.101000000    -1.815000000
C    -0.258000000     0.888000000    -0.895000000
H    -0.377000000     1.622000000    -1.687000000
C    -1.100000000     0.957000000     0.238000000
H    -1.838000000     1.755000000     0.255000000
C    -1.019000000     0.050000000     1.299000000
C    -1.848000000     0.163000000     2.445000000
O    -2.724000000     1.071000000     2.692000000
O    -1.750000000    -0.624000000     3.349000000
O     2.183000000    -0.254000000     4.027000000
H     2.182000000     0.368000000     3.300000000
H     2.078000000     0.290000000     4.808000000
O    -0.163000000    -2.899000000    -2.263000000
H     0.360000000    -2.613000000    -3.012000000
H    -0.653000000    -2.119000000    -2.002000000
O    -5.379000000     3.370000000     3.849000000
H    -5.455000000     2.439000000     3.639000000
H    -6.059000000     3.791000000     3.323000000
O     1.113000000     1.233000000     6.233000000
H     1.678000000     0.893000000     6.926000000
H     1.386000000     2.145000000     6.127000000
O    -3.527000000    -1.232000000    -1.003000000
H    -2.667000000    -0.812000000    -1.023000000
H    -3.348000000    -2.130000000    -0.724000000
O    -3.041000000    -3.700000000     0.562000000
H    -3.177000000    -3.179000000     1.354000000
H    -3.494000000    -4.525000000     0.737000000
O     2.807000000     3.482000000    -5.731000000
H     2.529000000     3.142000000    -4.881000000
H     3.555000000     4.045000000    -5.531000000
O    -4.404000000    -0.799000000     6.044000000
H    -3.490000000    -0.514000000     6.047000000
H    -4.379000000    -1.680000000     5.671000000
O     6.764000000    -3.747000000     0.519000000
H     7.175000000    -3.529000000    -0.317000000
H     5.892000000    -3.356000000     0.467000000
O     1.754000000     0.818000000    -7.837000000
H     1.774000000     1.584000000    -7.262000000
H     0.921000000     0.889000000    -8.302000000
O    -0.052000000     4.386000000     2.824000000
H    -0.006000000     3.435000000     2.720000000
H    -0.775000000     4.654000000     2.256000000
O    -3.999000000    -1.931000000     2.552000000
H    -4.329000000    -2.407000000     3.314000000
H    -3.221000000    -1.475000000     2.872000000
O    -8.060000000     0.138000000     3.489000000
H    -7.128000000     0.293000000     3.338000000
H    -8.380000000    -0.221000000     2.662000000
O    -2.483000000    -2.907000000    -5.334000000
H    -1.630000000    -3.326000000    -5.453000000
H    -2.275000000    -1.999000000    -5.116000000
O     0.679000000    -5.122000000    -0.628000000
H    -0.160000000    -5.426000000    -0.282000000
H     0.446000000    -4.431000000    -1.248000000
O    -4.799000000     3.583000000    -2.332000000
H    -4.480000000     4.482000000    -2.256000000
H    -4.926000000     3.297000000    -1.427000000
O     6.808000000     0.753000000    -1.876000000
H     7.187000000     0.200000000    -2.560000000
H     5.896000000     0.873000000    -2.143000000
O     4.059000000     0.343000000    -6.060000000
H     3.214000000     0.586000000    -6.440000000
H     4.341000000    -0.416000000    -6.570000000
O    -3.081000000     3.177000000     4.798000000
H    -4.007000000     3.144000000     4.556000000
H    -2.632000000     2.717000000     4.089000000
O     4.121000000    -2.345000000     0.938000000
H     3.729000000    -2.514000000     1.794000000
H     4.444000000    -1.446000000     0.996000000
O     0.397000000    -5.070000000     3.901000000
H    -0.062000000    -4.254000000     4.102000000
H     0.860000000    -4.890000000     3.083000000
O    -2.104000000     4.859000000     0.856000000
H    -2.644000000     5.502000000     1.317000000
H    -2.685000000     4.110000000     0.722000000
O     2.450000000    -5.412000000     1.790000000
H     2.856000000    -4.625000000     2.155000000
H     2.145000000    -5.144000000     0.923000000
O     1.735000000     1.683000000     2.253000000
H     1.125000000     1.208000000     1.688000000
H     2.433000000     1.969000000     1.664000000
O    -7.402000000     1.492000000     0.185000000
H    -7.825000000     0.728000000    -0.206000000
H    -6.596000000     1.149000000     0.571000000
O    -1.211000000    -0.592000000    -5.456000000
H    -0.561000000    -0.859000000    -6.105000000
H    -0.815000000     0.161000000    -5.017000000
O    -5.109000000     0.730000000     3.669000000
H    -4.947000000     0.231000000     4.470000000
H    -4.245000000     0.829000000     3.269000000
O    -4.528000000     2.891000000     0.668000000
H    -5.302000000     3.250000000     1.103000000
H    -4.312000000     2.107000000     1.173000000
O    -3.433000000     5.720000000     4.261000000
H    -3.292000000     4.793000000     4.456000000
H    -3.979000000     5.718000000     3.475000000
O    -2.479000000     2.663000000     7.688000000
H    -2.800000000     2.432000000     6.817000000
H    -2.875000000     3.515000000     7.871000000
O     1.612000000    -2.579000000    -4.315000000
H     1.906000000    -2.230000000    -5.156000000
H     2.415000000    -2.866000000    -3.880000000
O     4.872000000     0.116000000     1.103000000
H     5.708000000     0.338000000     0.693000000
H     4.246000000     0.731000000     0.720000000
O     4.324000000    -4.320000000    -4.045000000
H     5.227000000    -4.557000000    -4.256000000
H     3.875000000    -5.158000000    -3.938000000
O     2.080000000     3.642000000    -1.605000000
H     2.701000000     4.353000000    -1.759000000
H     1.277000000     4.081000000    -1.324000000
O    -0.040000000     5.539000000    -0.850000000
H     0.351000000     5.810000000    -0.019000000
H    -0.805000000     5.023000000    -0.597000000
O    -0.094000000    -4.423000000    -5.326000000
H     0.513000000    -3.795000000    -4.934000000
H     0.182000000    -5.272000000    -4.980000000
O    -1.605000000    -0.077000000     5.980000000
H    -0.715000000     0.151000000     6.246000000
H    -1.612000000     0.050000000     5.031000000
O    -0.135000000     1.678000000    -4.713000000
H    -0.735000000     2.290000000    -4.287000000
H     0.726000000     1.898000000    -4.357000000
O     3.615000000     2.416000000     0.508000000
H     3.054000000     2.978000000    -0.026000000
H     4.462000000     2.862000000     0.516000000
O    -0.900000000    -2.965000000     4.524000000
H    -1.038000000    -2.593000000     5.395000000
H    -1.019000000    -2.226000000     3.927000000
O     4.209000000    -2.324000000    -1.754000000
H     4.282000000    -3.136000000    -2.255000000
H     4.168000000    -2.609000000    -0.841000000
O     2.563000000     1.893000000    -3.679000000
H     3.161000000     1.226000000    -3.340000000
H     2.427000000     2.489000000    -2.943000000
O    -5.140000000    -0.037000000     0.857000000
H    -4.698000000    -0.401000000     0.090000000
H    -5.018000000    -0.697000000     1.539000000
O    -3.320000000     1.372000000    -2.952000000
H    -3.517000000     2.277000000    -2.711000000
H    -3.706000000     1.266000000    -3.822000000
O     6.449000000    -2.644000000    -4.832000000
H     5.549000000    -2.765000000    -4.530000000
H     6.388000000    -2.678000000    -5.787000000
O     2.994000000    -2.787000000     3.464000000
H     2.631000000    -1.915000000     3.624000000
H     3.133000000    -3.152000000     4.338000000
O     4.411000000     0.164000000    -2.756000000
H     4.683000000    -0.013000000    -3.657000000
H     4.234000000    -0.700000000    -2.385000000
O    -3.758000000    -3.720000000     4.531000000
H    -4.024000000    -4.030000000     5.397000000
H    -3.033000000    -4.293000000     4.283000000
