158
-2998.43674
C    -0.200000000    -1.327000000     0.717000000
H    -0.272000000    -2.315000000     1.164000000
C     0.853000000    -0.972000000    -0.074000000
H     1.697000000    -1.625000000    -0.276000000
C     0.985000000     0.302000000    -0.565000000
H     1.951000000     0.568000000    -1.112000000
C    -0.037000000     1.248000000    -0.411000000
H     0.017000000     2.142000000    -1.028000000
C    -1.186000000     0.912000000     0.256000000
H    -1.978000000     1.657000000     0.256000000
C    -1.249000000    -0.346000000     0.877000000
C    -2.468000000    -0.688000000     1.662000000
O    -3.270000000     0.110000000     1.955000000
O    -2.559000000    -1.787000000     2.212000000
O     1.752000000    -0.169000000     3.529000000
H     1.471000000     0.034000000     2.637000000
H     1.058000000     0.185000000     4.085000000
O    -1.559000000    -0.526000000    -2.453000000
H    -2.012000000     0.293000000    -2.654000000
H    -0.958000000    -0.300000000    -1.743000000
O    -6.349000000     3.221000000     3.235000000
H    -6.463000000     2.349000000     2.856000000
H    -6.770000000     3.810000000     2.609000000
O    -0.062000000     0.695000000     5.391000000
H     0.254000000     1.224000000     6.124000000
H    -0.802000000     1.190000000     5.041000000
O    -4.745000000     0.771000000    -2.599000000
H    -4.115000000     1.411000000    -2.267000000
H    -4.253000000     0.264000000    -3.245000000
O    -1.534000000    -5.070000000     0.715000000
H    -1.277000000    -5.240000000     1.621000000
H    -2.134000000    -4.327000000     0.771000000
O    -3.700000000    -5.346000000     4.362000000
H    -3.362000000    -6.131000000     4.793000000
H    -4.375000000    -5.672000000     3.767000000
O    -4.960000000    -0.276000000     6.217000000
H    -4.154000000    -0.607000000     5.822000000
H    -5.140000000    -0.880000000     6.937000000
O    -5.671000000     2.298000000     5.897000000
H    -5.260000000     1.456000000     5.697000000
H    -5.704000000     2.754000000     5.056000000
O    -7.620000000    -2.169000000     1.231000000
H    -6.696000000    -2.412000000     1.286000000
H    -7.828000000    -1.822000000     2.098000000
O     4.938000000     5.212000000     0.891000000
H     4.226000000     4.682000000     0.533000000
H     4.872000000     6.047000000     0.427000000
O    -1.388000000    -3.898000000     3.315000000
H    -2.121000000    -4.430000000     3.627000000
H    -1.799000000    -3.105000000     2.971000000
O    -2.930000000    -7.194000000    -0.744000000
H    -2.193000000    -6.588000000    -0.676000000
H    -3.596000000    -6.827000000    -0.162000000
O    -2.228000000    -2.609000000    -4.372000000
H    -2.116000000    -1.831000000    -3.824000000
H    -2.031000000    -2.307000000    -5.259000000
O     4.454000000    -4.712000000    -0.786000000
H     5.183000000    -4.498000000    -1.368000000
H     3.927000000    -5.337000000    -1.282000000
O     0.839000000     1.789000000    -8.016000000
H     1.257000000     0.953000000    -8.222000000
H     0.835000000     1.825000000    -7.059000000
O    -0.102000000     4.616000000    -4.201000000
H     0.655000000     4.074000000    -3.977000000
H     0.021000000     5.419000000    -3.695000000
O    -6.215000000    -3.691000000     5.009000000
H    -6.251000000    -3.010000000     4.338000000
H    -5.308000000    -3.998000000     4.990000000
O     7.040000000     4.161000000    -3.219000000
H     6.466000000     3.512000000    -2.813000000
H     6.545000000     4.979000000    -3.175000000
O    -1.870000000     1.971000000     3.835000000
H    -2.419000000     1.353000000     3.354000000
H    -1.161000000     2.184000000     3.229000000
O     0.544000000    -7.418000000    -0.141000000
H     0.123000000    -6.559000000    -0.133000000
H     0.731000000    -7.602000000     0.779000000
O     7.232000000     1.282000000     0.766000000
H     7.795000000     1.648000000     0.084000000
H     6.915000000     2.046000000     1.249000000
O     0.948000000    -5.383000000     3.114000000
H     0.213000000    -4.816000000     2.883000000
H     1.677000000    -5.057000000     2.586000000
O    -0.667000000     4.923000000     0.137000000
H     0.086000000     5.367000000     0.528000000
H    -1.423000000     5.278000000     0.605000000
O     3.306000000    -4.353000000     1.663000000
H     3.682000000    -3.591000000     2.104000000
H     3.689000000    -4.335000000     0.786000000
O    -3.148000000     5.204000000     1.418000000
H    -3.201000000     4.580000000     0.694000000
H    -3.788000000     5.881000000     1.198000000
O     0.312000000     2.486000000     2.277000000
H     0.268000000     2.242000000     1.352000000
H     1.086000000     3.045000000     2.341000000
O    -6.678000000     1.454000000    -0.421000000
H    -6.032000000     1.058000000    -1.005000000
H    -6.358000000     1.258000000     0.459000000
O    -0.189000000     0.671000000    -4.980000000
H    -0.745000000     1.444000000    -5.080000000
H     0.666000000     1.021000000    -4.730000000
O    -5.878000000     0.910000000     2.111000000
H    -6.257000000     0.133000000     2.522000000
H    -4.954000000     0.689000000     1.988000000
O    -4.205000000     3.732000000    -0.574000000
H    -3.419000000     3.483000000    -1.060000000
H    -4.913000000     3.669000000    -1.215000000
O    -2.933000000     4.430000000     4.385000000
H    -2.400000000     3.648000000     4.531000000
H    -3.281000000     4.320000000     3.500000000
O     1.397000000    -1.618000000    -5.833000000
H     0.607000000    -1.079000000    -5.869000000
H     1.695000000    -1.546000000    -4.926000000
O    -5.040000000    -5.842000000     0.352000000
H    -5.143000000    -4.903000000     0.501000000
H    -5.156000000    -6.236000000     1.217000000
O     2.560000000     4.292000000    -3.154000000
H     3.142000000     4.602000000    -3.848000000
H     2.356000000     5.077000000    -2.645000000
O     2.021000000     6.359000000    -1.408000000
H     1.509000000     7.148000000    -1.583000000
H     1.881000000     6.184000000    -0.477000000
O    -2.844000000    -1.684000000     4.860000000
H    -2.150000000    -2.225000000     5.239000000
H    -2.749000000    -1.802000000     3.915000000
O     3.463000000     3.395000000    -0.801000000
H     2.980000000     3.682000000    -1.576000000
H     3.927000000     2.607000000    -1.087000000
O     0.485000000    -1.917000000     5.538000000
H     1.203000000    -1.874000000     4.906000000
H     0.115000000    -1.034000000     5.540000000
O     4.670000000     0.143000000    -0.943000000
H     5.488000000     0.382000000    -0.507000000
H     4.850000000    -0.710000000    -1.339000000
O     2.431000000     1.403000000    -4.435000000
H     3.246000000     1.447000000    -4.936000000
H     2.638000000     1.826000000    -3.602000000
O    -4.553000000    -3.325000000     1.220000000
H    -4.302000000    -2.845000000     2.010000000
H    -4.174000000    -2.819000000     0.502000000
O    -2.569000000     3.082000000    -3.124000000
H    -1.760000000     3.551000000    -2.921000000
H    -2.348000000     2.541000000    -3.883000000
O     6.522000000    -1.649000000    -4.718000000
H     6.547000000    -2.339000000    -4.055000000
H     5.754000000    -1.856000000    -5.250000000
O     3.772000000    -2.198000000     3.225000000
H     3.205000000    -1.428000000     3.182000000
H     4.646000000    -1.843000000     3.391000000
O    -2.839000000    -2.913000000    -1.078000000
H    -3.302000000    -3.425000000    -1.741000000
H    -2.088000000    -2.544000000    -1.543000000
O     5.362000000     1.431000000    -4.578000000
H     5.348000000     1.113000000    -5.480000000
H     6.154000000     1.048000000    -4.201000000
O    -5.260000000    -1.495000000     3.404000000
H    -4.452000000    -1.252000000     2.951000000
H    -5.170000000    -1.110000000     4.276000000
