158
-3000.74825
C     0.112000000    -1.349000000     0.562000000
H     0.134000000    -2.394000000     0.859000000
C     0.802000000    -0.897000000    -0.527000000
H     1.540000000    -1.417000000    -1.132000000
C     0.676000000     0.420000000    -0.881000000
H     1.237000000     0.819000000    -1.747000000
C    -0.314000000     1.242000000    -0.343000000
H    -0.408000000     2.276000000    -0.666000000
C    -1.034000000     0.792000000     0.788000000
H    -1.710000000     1.538000000     1.197000000
C    -0.856000000    -0.535000000     1.210000000
C    -1.559000000    -1.071000000     2.384000000
O    -2.422000000    -0.453000000     2.957000000
O    -1.230000000    -2.186000000     2.799000000
O    -0.957000000     0.549000000    -4.359000000
H    -0.089000000     0.171000000    -4.501000000
H    -0.783000000     1.414000000    -3.987000000
O     0.067000000     4.372000000     3.941000000
H     0.802000000     4.206000000     4.531000000
H    -0.398000000     3.537000000     3.895000000
O    -2.963000000     1.408000000    -6.144000000
H    -2.674000000     1.023000000    -6.971000000
H    -2.293000000     1.147000000    -5.511000000
O     0.119000000     1.786000000     6.371000000
H    -0.289000000     2.615000000     6.618000000
H    -0.336000000     1.524000000     5.570000000
O    -3.426000000    -0.640000000    -0.525000000
H    -2.506000000    -0.834000000    -0.348000000
H    -3.630000000    -1.145000000    -1.312000000
O    -1.893000000    -3.565000000    -2.128000000
H    -1.739000000    -3.467000000    -1.188000000
H    -1.047000000    -3.369000000    -2.531000000
O     1.743000000     5.169000000    -4.710000000
H     2.587000000     5.587000000    -4.536000000
H     1.186000000     5.878000000    -5.030000000
O    -2.353000000    -6.420000000     3.969000000
H    -1.439000000    -6.393000000     4.254000000
H    -2.313000000    -6.742000000     3.068000000
O    -4.242000000    -0.365000000     6.602000000
H    -3.644000000    -0.874000000     6.056000000
H    -5.004000000    -0.933000000     6.716000000
O     0.542000000    -3.216000000     4.263000000
H     1.311000000    -2.757000000     3.925000000
H    -0.174000000    -2.937000000     3.693000000
O     4.876000000     3.448000000    -5.013000000
H     4.793000000     4.401000000    -4.980000000
H     4.326000000     3.135000000    -4.294000000
O     0.548000000     4.329000000     1.218000000
H     1.489000000     4.215000000     1.346000000
H     0.160000000     4.088000000     2.059000000
O    -1.872000000    -3.999000000     0.870000000
H    -2.086000000    -4.793000000     1.359000000
H    -1.586000000    -3.375000000     1.538000000
O    -2.319000000    -4.807000000     6.165000000
H    -2.380000000    -5.410000000     5.424000000
H    -2.520000000    -3.949000000     5.792000000
O    -1.534000000    -2.494000000    -5.939000000
H    -1.600000000    -2.322000000    -6.878000000
H    -1.156000000    -1.694000000    -5.574000000
O     5.448000000     1.594000000     2.067000000
H     6.287000000     2.051000000     2.027000000
H     5.020000000     1.805000000     1.237000000
O     4.872000000    -3.832000000    -1.451000000
H     5.417000000    -4.522000000    -1.828000000
H     5.415000000    -3.447000000    -0.763000000
O     0.918000000     2.872000000    -6.416000000
H     0.351000000     2.275000000    -6.905000000
H     0.616000000     3.746000000    -6.664000000
O     1.992000000    -2.726000000     6.810000000
H     1.467000000    -2.020000000     7.187000000
H     1.754000000    -2.733000000     5.884000000
O     0.266000000     3.081000000    -3.331000000
H     0.071000000     3.777000000    -2.703000000
H     0.760000000     3.517000000    -4.026000000
O    -4.979000000    -4.951000000     4.000000000
H    -4.896000000    -4.084000000     3.604000000
H    -4.136000000    -5.372000000     3.833000000
O     3.122000000     1.263000000    -6.113000000
H     2.376000000     1.854000000    -6.016000000
H     3.364000000     1.332000000    -7.037000000
O    -0.748000000     1.562000000     3.912000000
H    -1.424000000     0.943000000     3.636000000
H     0.029000000     1.305000000     3.415000000
O     6.498000000    -0.283000000    -2.537000000
H     5.983000000    -0.188000000    -3.338000000
H     7.174000000     0.392000000    -2.605000000
O     2.507000000    -5.585000000     1.569000000
H     2.506000000    -4.629000000     1.617000000
H     3.134000000    -5.858000000     2.240000000
O    -3.393000000     3.533000000    -0.541000000
H    -4.035000000     3.101000000    -1.104000000
H    -2.545000000     3.268000000    -0.898000000
O     3.333000000    -2.840000000     1.492000000
H     4.242000000    -2.592000000     1.662000000
H     3.164000000    -2.535000000     0.600000000
O     2.285000000    -0.830000000     4.188000000
H     2.240000000    -0.247000000     3.431000000
H     3.118000000    -1.291000000     4.086000000
O    -5.171000000     1.194000000     0.680000000
H    -4.465000000     0.618000000     0.385000000
H    -5.275000000     1.827000000    -0.030000000
O     1.441000000    -0.499000000    -4.933000000
H     1.920000000    -1.157000000    -4.431000000
H     2.124000000     0.048000000    -5.323000000
O    -5.580000000     0.468000000     3.241000000
H    -5.557000000     0.835000000     2.357000000
H    -4.719000000     0.066000000     3.356000000
O    -5.590000000     2.743000000     5.292000000
H    -5.748000000     1.907000000     4.854000000
H    -5.067000000     2.515000000     6.061000000
O     3.172000000    -1.907000000    -3.145000000
H     3.776000000    -1.256000000    -3.503000000
H     3.566000000    -2.167000000    -2.312000000
O     4.215000000     2.290000000    -0.119000000
H     3.918000000     2.015000000    -0.986000000
H     3.844000000     3.165000000    -0.005000000
O     2.631000000     5.023000000    -1.669000000
H     2.581000000     5.773000000    -1.076000000
H     1.839000000     5.086000000    -2.202000000
O    -0.379000000     4.981000000    -1.267000000
H    -0.526000000     5.908000000    -1.082000000
H    -0.265000000     4.580000000    -0.405000000
O     2.048000000    -4.575000000    -2.181000000
H     1.872000000    -3.758000000    -2.648000000
H     2.900000000    -4.436000000    -1.768000000
O    -2.424000000    -1.965000000     5.426000000
H    -1.620000000    -1.650000000     5.837000000
H    -2.296000000    -1.801000000     4.492000000
O    -4.496000000     5.697000000     0.457000000
H    -5.291000000     5.558000000     0.971000000
H    -4.203000000     4.816000000     0.226000000
O     6.727000000     3.250000000    -2.496000000
H     6.084000000     2.671000000    -2.904000000
H     6.303000000     3.550000000    -1.692000000
O    -0.400000000    -0.841000000     6.419000000
H     0.058000000    -1.111000000     5.623000000
H    -0.213000000     0.094000000     6.498000000
O     1.521000000     1.438000000     2.269000000
H     1.507000000     1.203000000     1.341000000
H     2.165000000     2.143000000     2.328000000
O     3.161000000     2.731000000    -3.010000000
H     3.071000000     3.665000000    -2.823000000
H     2.293000000     2.462000000    -3.313000000
O    -5.453000000    -2.942000000     0.137000000
H    -5.161000000    -3.079000000     1.038000000
H    -4.799000000    -3.392000000    -0.397000000
O    -2.149000000     3.708000000    -4.419000000
H    -1.243000000     3.428000000    -4.286000000
H    -2.529000000     3.032000000    -4.979000000
O     0.153000000    -5.890000000     4.846000000
H     0.655000000    -5.872000000     5.661000000
H     0.196000000    -4.991000000     4.519000000
O     5.001000000    -0.530000000    -4.905000000
H     4.366000000     0.104000000    -5.236000000
H     5.693000000    -0.546000000    -5.567000000
O    -4.212000000    -2.635000000     2.710000000
H    -3.263000000    -2.522000000     2.777000000
H    -4.562000000    -1.745000000     2.741000000
