158
-3064.25466
C     1.347000000    -0.494000000    -0.287000000
H     2.329000000    -0.705000000    -0.702000000
C     0.543000000     0.234000000    -1.153000000
H     0.752000000     0.430000000    -2.202000000
C    -0.691000000     0.685000000    -0.752000000
H    -1.468000000     1.058000000    -1.444000000
C    -1.087000000     0.405000000     0.512000000
H    -2.083000000     0.732000000     0.801000000
C    -0.272000000    -0.224000000     1.453000000
H    -0.564000000    -0.568000000     2.442000000
C     1.027000000    -0.719000000     1.021000000
C     1.885000000    -1.530000000     1.957000000
O     1.344000000    -1.932000000     2.977000000
O     3.052000000    -1.870000000     1.670000000
O    -5.289000000    -0.090000000    -6.257000000
H    -5.365000000     0.191000000    -5.345000000
H    -5.876000000    -0.843000000    -6.325000000
O     6.501000000    -2.946000000     2.241000000
H     7.183000000    -2.529000000     1.715000000
H     6.292000000    -2.301000000     2.917000000
O    -3.465000000    -1.127000000    -0.165000000
H    -3.481000000    -0.902000000    -1.095000000
H    -2.542000000    -1.299000000     0.025000000
O     2.968000000    -6.020000000     0.740000000
H     2.501000000    -5.564000000     1.440000000
H     3.375000000    -6.770000000     1.173000000
O     1.805000000    -3.567000000     7.228000000
H     1.965000000    -2.678000000     6.913000000
H     2.673000000    -3.902000000     7.451000000
O    -5.144000000     4.939000000    -0.666000000
H    -4.491000000     4.908000000     0.033000000
H    -5.882000000     4.432000000    -0.328000000
O     2.086000000    -0.558000000    -6.097000000
H     1.229000000    -0.718000000    -5.702000000
H     2.040000000    -0.988000000    -6.951000000
O    -1.753000000    -4.338000000    -1.652000000
H    -1.004000000    -4.933000000    -1.658000000
H    -1.376000000    -3.476000000    -1.825000000
O    -2.421000000     2.105000000     5.394000000
H    -2.148000000     1.206000000     5.209000000
H    -1.660000000     2.638000000     5.164000000
O    -0.503000000    -4.496000000     6.030000000
H    -0.535000000    -4.077000000     5.170000000
H     0.328000000    -4.207000000     6.407000000
O     4.650000000     1.361000000     0.611000000
H     4.420000000     0.529000000     1.025000000
H     4.671000000     1.164000000    -0.326000000
O     2.175000000    -4.544000000    -4.492000000
H     2.559000000    -4.054000000    -3.765000000
H     2.015000000    -5.417000000    -4.135000000
O    -4.185000000    -3.934000000    -0.472000000
H    -3.283000000    -4.246000000    -0.547000000
H    -4.110000000    -2.980000000    -0.476000000
O     4.384000000    -5.072000000     4.400000000
H     3.561000000    -5.178000000     3.923000000
H     4.944000000    -4.574000000     3.805000000
O    -1.425000000    -0.515000000     5.114000000
H    -1.410000000    -1.328000000     4.609000000
H    -1.425000000    -0.801000000     6.028000000
O    -4.780000000     4.772000000    -5.147000000
H    -5.666000000     5.010000000    -4.877000000
H    -4.625000000     3.921000000    -4.736000000
O     4.986000000    -0.823000000     3.267000000
H     4.338000000    -1.187000000     2.664000000
H     4.470000000    -0.499000000     4.005000000
O    -1.820000000     6.080000000    -1.129000000
H    -2.102000000     5.201000000    -0.876000000
H    -0.909000000     6.132000000    -0.841000000
O     1.477000000    -0.896000000     5.363000000
H     0.566000000    -0.602000000     5.349000000
H     1.597000000    -1.345000000     4.526000000
O     4.189000000    -5.197000000    -1.516000000
H     4.406000000    -4.291000000    -1.299000000
H     3.877000000    -5.573000000    -0.693000000
O     4.569000000     0.903000000    -2.254000000
H     4.128000000     0.716000000    -3.082000000
H     5.153000000     0.156000000    -2.120000000
O    -3.436000000     5.228000000     1.431000000
H    -3.776000000     5.918000000     2.001000000
H    -3.026000000     4.603000000     2.030000000
O     2.043000000    -4.659000000     3.139000000
H     2.064000000    -3.703000000     3.094000000
H     1.227000000    -4.859000000     3.598000000
O    -3.435000000    -0.952000000    -2.873000000
H    -2.782000000    -0.677000000    -3.516000000
H    -4.252000000    -0.556000000    -3.176000000
O     1.443000000    -3.897000000    -0.306000000
H     1.721000000    -4.490000000    -1.004000000
H     2.160000000    -3.920000000     0.328000000
O    -4.571000000    -0.386000000     2.232000000
H    -4.140000000    -0.714000000     1.442000000
H    -4.177000000     0.473000000     2.381000000
O    -6.611000000     0.451000000     0.395000000
H    -7.089000000    -0.063000000    -0.255000000
H    -6.197000000    -0.201000000     0.960000000
O    -0.152000000    -1.966000000    -3.767000000
H    -0.165000000    -2.465000000    -4.584000000
H    -0.666000000    -1.181000000    -3.958000000
O    -2.238000000     3.348000000    -5.820000000
H    -2.141000000     2.952000000    -6.686000000
H    -2.642000000     4.198000000    -5.989000000
O     2.006000000     2.783000000    -0.141000000
H     2.881000000     2.397000000    -0.093000000
H     1.419000000     2.034000000    -0.241000000
O     6.661000000    -0.980000000    -1.695000000
H     7.310000000    -1.641000000    -1.937000000
H     6.414000000    -1.203000000    -0.798000000
O     0.873000000     4.648000000    -3.268000000
H     1.266000000     5.000000000    -2.470000000
H     0.601000000     5.420000000    -3.763000000
O     2.611000000     3.530000000    -5.331000000
H     2.039000000     3.789000000    -4.608000000
H     2.129000000     3.778000000    -6.119000000
O    -5.963000000     2.861000000     1.566000000
H    -5.187000000     2.604000000     2.065000000
H    -6.180000000     2.088000000     1.045000000
O     0.360000000     5.107000000     0.623000000
H     1.078000000     4.676000000     0.159000000
H     0.791000000     5.746000000     1.190000000
O    -6.029000000     1.104000000    -3.770000000
H    -5.394000000     1.582000000    -3.237000000
H    -6.825000000     1.633000000    -3.726000000
O    -1.749000000     3.311000000    -2.977000000
H    -1.979000000     3.345000000    -3.906000000
H    -0.897000000     3.743000000    -2.925000000
O     4.045000000     0.156000000     5.977000000
H     3.126000000     0.052000000     5.731000000
H     4.021000000     0.373000000     6.909000000
O    -1.053000000     3.484000000     2.524000000
H    -0.453000000     3.773000000     1.836000000
H    -0.480000000     3.219000000     3.244000000
O     5.000000000    -2.639000000    -0.025000000
H     4.198000000    -2.338000000     0.402000000
H     5.464000000    -3.127000000     0.656000000
O    -4.425000000     2.931000000    -2.569000000
H    -4.710000000     3.557000000    -1.904000000
H    -3.477000000     2.869000000    -2.449000000
O    -3.358000000     2.121000000     2.654000000
H    -3.149000000     2.194000000     3.586000000
H    -2.592000000     2.485000000     2.209000000
O     4.587000000    -1.730000000    -3.657000000
H     3.720000000    -1.882000000    -3.281000000
H     5.182000000    -1.760000000    -2.907000000
O    -1.704000000     0.043000000    -4.641000000
H    -1.998000000    -0.214000000    -5.515000000
H    -1.714000000     1.000000000    -4.657000000
O     4.060000000     1.192000000    -5.159000000
H     3.639000000     2.051000000    -5.123000000
H     3.372000000     0.601000000    -5.468000000
O     2.283000000    -2.451000000    -2.636000000
H     2.090000000    -2.720000000    -1.738000000
H     1.428000000    -2.239000000    -3.011000000
O    -1.546000000    -5.071000000     1.460000000
H    -1.064000000    -5.162000000     0.638000000
H    -1.239000000    -5.799000000     2.000000000
O    -0.816000000    -3.379000000     3.505000000
H    -1.116000000    -3.688000000     2.650000000
H    -0.144000000    -2.728000000     3.302000000
