158
-3068.92738
C     0.968000000    -1.130000000     0.183000000
H     1.748000000    -1.888000000     0.186000000
C     0.546000000    -0.660000000    -1.065000000
H     0.765000000    -1.196000000    -1.985000000
C    -0.452000000     0.369000000    -1.101000000
H    -0.865000000     0.634000000    -2.125000000
C    -0.789000000     1.014000000     0.069000000
H    -1.559000000     1.778000000    -0.013000000
C    -0.180000000     0.681000000     1.297000000
H    -0.477000000     1.200000000     2.205000000
C     0.588000000    -0.489000000     1.377000000
C     1.081000000    -0.949000000     2.764000000
O     0.454000000    -0.637000000     3.774000000
O     1.995000000    -1.762000000     2.826000000
O    -0.115000000     6.438000000    -3.403000000
H     0.370000000     5.911000000    -2.767000000
H     0.081000000     7.343000000    -3.163000000
O    -2.098000000    -3.706000000    -5.204000000
H    -2.351000000    -2.975000000    -5.768000000
H    -1.233000000    -3.464000000    -4.873000000
O    -2.533000000    -1.489000000     0.259000000
H    -2.930000000    -1.393000000    -0.606000000
H    -1.788000000    -0.888000000     0.248000000
O    -5.914000000     2.422000000     1.145000000
H    -5.168000000     3.014000000     1.238000000
H    -5.556000000     1.554000000     1.329000000
O     1.628000000     0.364000000    -4.066000000
H     2.432000000     0.343000000    -3.548000000
H     1.343000000     1.277000000    -4.029000000
O     3.907000000    -1.387000000    -5.052000000
H     4.026000000    -1.735000000    -4.168000000
H     3.073000000    -0.920000000    -5.015000000
O    -0.464000000     3.365000000     6.710000000
H    -0.884000000     4.224000000     6.727000000
H    -0.356000000     3.170000000     5.779000000
O    -3.920000000     1.624000000     3.448000000
H    -4.423000000     1.344000000     4.212000000
H    -4.102000000     0.959000000     2.784000000
O    -3.574000000     4.076000000     1.576000000
H    -3.511000000     3.374000000     2.223000000
H    -3.033000000     4.780000000     1.934000000
O    -2.469000000    -4.172000000    -0.244000000
H    -2.246000000    -4.094000000    -1.171000000
H    -2.459000000    -3.272000000     0.081000000
O    -4.922000000    -0.010000000    -6.412000000
H    -5.821000000     0.264000000    -6.228000000
H    -4.448000000     0.164000000    -5.599000000
O    -4.554000000    -0.968000000     4.437000000
H    -4.915000000    -1.654000000     3.876000000
H    -3.605000000    -1.086000000     4.379000000
O    -1.579000000    -1.375000000     6.911000000
H    -1.521000000    -0.625000000     6.319000000
H    -2.305000000    -1.162000000     7.498000000
O     3.739000000    -5.931000000     2.851000000
H     2.957000000    -6.380000000     2.531000000
H     4.436000000    -6.583000000     2.779000000
O     3.597000000    -0.478000000     4.795000000
H     3.035000000    -0.784000000     4.083000000
H     3.039000000     0.110000000     5.305000000
O    -2.579000000     5.950000000    -0.666000000
H    -2.202000000     5.117000000    -0.384000000
H    -1.899000000     6.597000000    -0.474000000
O     1.583000000     1.123000000     6.333000000
H     1.113000000     1.784000000     6.842000000
H     0.911000000     0.722000000     5.782000000
O     4.247000000    -2.530000000    -2.605000000
H     4.833000000    -2.158000000    -1.947000000
H     3.618000000    -3.047000000    -2.101000000
O     6.380000000    -0.441000000     4.201000000
H     5.463000000    -0.168000000     4.230000000
H     6.458000000    -1.094000000     4.896000000
O     3.119000000     3.140000000    -2.631000000
H     2.774000000     3.276000000    -3.513000000
H     3.298000000     2.201000000    -2.585000000
O    -0.467000000     4.055000000    -0.624000000
H    -0.064000000     3.424000000    -0.029000000
H     0.230000000     4.681000000    -0.819000000
O     4.077000000    -3.140000000     1.736000000
H     3.501000000    -2.549000000     2.220000000
H     4.146000000    -3.916000000     2.291000000
O    -3.820000000    -1.506000000    -2.345000000
H    -3.886000000    -2.160000000    -3.041000000
H    -4.186000000    -0.710000000    -2.729000000
O     0.882000000    -4.066000000     3.477000000
H     1.354000000    -3.274000000     3.219000000
H     0.420000000    -3.820000000     4.278000000
O     0.928000000    -2.215000000     5.794000000
H     0.304000000    -2.017000000     6.492000000
H     0.752000000    -1.557000000     5.122000000
O    -6.331000000    -1.016000000    -0.390000000
H    -6.290000000    -1.865000000     0.049000000
H    -6.067000000    -1.199000000    -1.292000000
O    -4.696000000    -0.190000000     1.490000000
H    -5.294000000    -0.374000000     0.766000000
H    -3.966000000    -0.795000000     1.358000000
O     1.070000000    -4.741000000    -3.965000000
H     0.608000000    -3.923000000    -3.784000000
H     1.982000000    -4.478000000    -4.094000000
O     1.965000000     2.702000000    -0.058000000
H     2.692000000     2.694000000    -0.680000000
H     1.560000000     1.840000000    -0.152000000
O     3.600000000     0.497000000    -2.266000000
H     4.538000000     0.575000000    -2.442000000
H     3.547000000    -0.064000000    -1.493000000
O    -1.767000000     3.086000000    -2.844000000
H    -2.669000000     3.390000000    -2.944000000
H    -1.470000000     3.483000000    -2.024000000
O    -3.007000000    -4.108000000     3.815000000
H    -3.214000000    -4.294000000     4.731000000
H    -2.783000000    -3.178000000     3.805000000
O    -0.390000000     2.937000000    -5.399000000
H    -0.983000000     3.244000000    -6.085000000
H    -0.943000000     2.864000000    -4.621000000
O    -2.011000000    -1.546000000     3.159000000
H    -1.157000000    -1.136000000     3.295000000
H    -2.056000000    -1.697000000     2.215000000
O    -0.045000000     3.216000000     3.904000000
H     0.874000000     3.227000000     3.638000000
H    -0.505000000     3.664000000     3.194000000
O     1.715000000     5.562000000    -1.510000000
H     2.155000000     4.790000000    -1.867000000
H     2.258000000     5.824000000    -0.766000000
O    -1.214000000     0.086000000    -5.399000000
H    -1.238000000    -0.042000000    -6.347000000
H    -0.665000000     0.861000000    -5.276000000
O     2.419000000     2.908000000     2.991000000
H     3.372000000     2.970000000     2.922000000
H     2.132000000     2.653000000     2.114000000
O     5.734000000    -2.175000000    -0.254000000
H     5.155000000    -2.372000000     0.482000000
H     6.284000000    -1.458000000     0.059000000
O    -4.430000000     3.165000000    -3.199000000
H    -4.744000000     3.481000000    -4.047000000
H    -4.902000000     3.694000000    -2.556000000
O    -1.114000000     0.715000000     5.100000000
H    -1.201000000     1.512000000     4.578000000
H    -0.531000000     0.155000000     4.588000000
O     0.120000000    -2.163000000    -4.104000000
H     0.544000000    -1.362000000    -3.796000000
H    -0.407000000    -1.882000000    -4.852000000
O     2.854000000    -3.882000000    -0.751000000
H     3.442000000    -3.664000000    -0.027000000
H     2.068000000    -4.226000000    -0.326000000
O    -3.725000000     0.639000000    -4.255000000
H    -3.738000000     1.481000000    -3.800000000
H    -2.797000000     0.459000000    -4.401000000
O     2.607000000     3.420000000    -5.220000000
H     3.037000000     3.979000000    -5.866000000
H     1.723000000     3.292000000    -5.565000000
O     0.405000000    -4.470000000     1.038000000
H    -0.420000000    -4.955000000     1.030000000
H     0.572000000    -4.295000000     1.964000000
O     3.503000000    -0.524000000     7.661000000
H     2.636000000    -0.128000000     7.570000000
H     3.586000000    -1.097000000     6.899000000
O     3.319000000    -4.169000000     5.279000000
H     2.890000000    -4.641000000     4.566000000
H     3.059000000    -3.257000000     5.153000000
