158
-3061.76789
C     0.531000000    -1.330000000     0.045000000
H     0.883000000    -2.355000000    -0.044000000
C     0.165000000    -0.627000000    -1.108000000
H     0.296000000    -1.196000000    -2.025000000
C    -0.309000000     0.689000000    -1.010000000
H    -0.635000000     1.116000000    -1.944000000
C    -0.483000000     1.176000000     0.262000000
H    -0.951000000     2.138000000     0.450000000
C    -0.065000000     0.512000000     1.433000000
H    -0.241000000     1.020000000     2.377000000
C     0.512000000    -0.721000000     1.263000000
C     0.959000000    -1.563000000     2.432000000
O     0.432000000    -1.396000000     3.502000000
O     1.625000000    -2.598000000     2.262000000
O     1.482000000     4.271000000    -3.092000000
H     1.847000000     4.381000000    -2.214000000
H     1.301000000     5.163000000    -3.389000000
O     0.470000000     6.677000000    -3.223000000
H     0.270000000     7.468000000    -3.723000000
H     0.286000000     6.915000000    -2.314000000
O    -1.214000000    -3.711000000    -4.343000000
H    -1.586000000    -4.338000000    -4.964000000
H    -0.279000000    -3.699000000    -4.547000000
O    -3.049000000    -2.053000000    -0.047000000
H    -3.321000000    -1.966000000    -0.960000000
H    -2.427000000    -1.338000000     0.088000000
O     3.726000000    -6.777000000    -0.573000000
H     3.571000000    -7.286000000    -1.368000000
H     2.865000000    -6.431000000    -0.338000000
O     2.888000000     1.463000000    -2.535000000
H     2.481000000     2.207000000    -2.980000000
H     2.276000000     1.240000000    -1.834000000
O     3.284000000    -1.262000000    -3.876000000
H     3.157000000    -1.987000000    -3.264000000
H     2.915000000    -0.502000000    -3.426000000
O    -0.550000000    -4.793000000    -1.533000000
H    -0.560000000    -4.286000000    -2.346000000
H    -0.402000000    -5.695000000    -1.815000000
O     0.086000000     3.494000000     6.556000000
H    -0.358000000     4.194000000     7.035000000
H     0.316000000     3.888000000     5.715000000
O     0.717000000     4.590000000     3.843000000
H     0.335000000     4.671000000     2.969000000
H     1.647000000     4.426000000     3.684000000
O    -5.534000000     2.784000000    -5.810000000
H    -5.800000000     3.365000000    -5.098000000
H    -4.708000000     2.402000000    -5.511000000
O    -0.901000000     3.484000000    -6.337000000
H    -1.200000000     4.187000000    -6.914000000
H    -1.457000000     3.559000000    -5.561000000
O    -1.966000000     2.164000000     4.395000000
H    -1.235000000     2.764000000     4.540000000
H    -1.814000000     1.448000000     5.011000000
O    -3.070000000    -2.408000000    -2.639000000
H    -2.486000000    -2.785000000    -3.296000000
H    -3.721000000    -3.091000000    -2.477000000
O    -3.531000000     2.574000000     2.076000000
H    -3.811000000     1.711000000     1.772000000
H    -3.162000000     2.415000000     2.944000000
O    -2.237000000    -4.495000000     0.473000000
H    -1.576000000    -4.626000000    -0.207000000
H    -2.593000000    -3.624000000     0.297000000
O    -4.639000000     4.723000000    -3.456000000
H    -5.174000000     3.984000000    -3.166000000
H    -4.070000000     4.914000000    -2.710000000
O    -6.271000000     0.523000000    -0.335000000
H    -5.619000000     0.457000000    -1.033000000
H    -7.098000000     0.672000000    -0.794000000
O     3.380000000     3.916000000     3.817000000
H     3.282000000     2.964000000     3.840000000
H     4.170000000     4.088000000     4.329000000
O    -3.842000000    -0.930000000     4.908000000
H    -2.997000000    -0.522000000     4.717000000
H    -3.624000000    -1.829000000     5.152000000
O    -1.687000000    -1.846000000     7.386000000
H    -1.506000000    -1.111000000     6.801000000
H    -2.160000000    -2.475000000     6.842000000
O     4.169000000    -3.800000000     5.758000000
H     4.446000000    -4.062000000     4.880000000
H     3.243000000    -3.578000000     5.661000000
O    -2.560000000     4.744000000     1.015000000
H    -2.781000000     3.857000000     1.300000000
H    -1.645000000     4.857000000     1.274000000
O     4.885000000     1.503000000    -4.678000000
H     4.154000000     1.282000000    -4.101000000
H     4.482000000     1.627000000    -5.538000000
O     4.309000000    -3.701000000    -2.128000000
H     4.726000000    -4.515000000    -1.845000000
H     3.443000000    -3.720000000    -1.721000000
O     2.519000000     4.215000000    -0.176000000
H     2.826000000     3.335000000     0.044000000
H     3.302000000     4.671000000    -0.484000000
O     4.690000000    -4.579000000     3.161000000
H     5.194000000    -4.331000000     2.386000000
H     3.816000000    -4.221000000     3.003000000
O    -4.347000000     0.378000000    -2.367000000
H    -3.621000000    -0.195000000    -2.611000000
H    -4.298000000     1.105000000    -2.988000000
O     1.840000000    -4.947000000     3.389000000
H     1.615000000    -4.075000000     3.064000000
H     1.496000000    -4.966000000     4.283000000
O     1.698000000    -2.495000000     5.695000000
H     2.230000000    -1.714000000     5.848000000
H     1.108000000    -2.248000000     4.983000000
O    -4.240000000    -0.041000000     1.628000000
H    -3.982000000    -0.863000000     1.210000000
H    -4.888000000     0.337000000     1.033000000
O     3.317000000     1.560000000     0.558000000
H     3.617000000     0.712000000     0.229000000
H     3.254000000     1.440000000     1.506000000
O     4.773000000    -1.018000000     0.024000000
H     4.706000000    -0.990000000     0.978000000
H     4.762000000    -1.950000000    -0.191000000
O    -1.151000000     3.385000000    -3.462000000
H    -1.677000000     3.952000000    -2.898000000
H    -0.255000000     3.702000000    -3.352000000
O    -2.868000000    -3.686000000     5.847000000
H    -3.505000000    -4.221000000     5.372000000
H    -2.057000000    -3.782000000     5.349000000
O    -2.152000000     5.192000000    -1.818000000
H    -1.804000000     6.047000000    -2.072000000
H    -2.319000000     5.271000000    -0.879000000
O     2.257000000     3.818000000    -5.822000000
H     1.361000000     4.035000000    -6.078000000
H     2.275000000     3.951000000    -4.874000000
O    -1.096000000    -3.638000000     3.442000000
H    -0.726000000    -2.835000000     3.076000000
H    -1.210000000    -4.215000000     2.687000000
O     1.439000000     1.307000000     5.794000000
H     2.163000000     1.193000000     6.410000000
H     1.065000000     2.159000000     6.019000000
O     0.424000000     1.068000000    -7.441000000
H     0.650000000     1.444000000    -8.292000000
H     0.019000000     1.791000000    -6.960000000
O     0.065000000     4.783000000     1.082000000
H     0.118000000     5.697000000     0.802000000
H     0.766000000     4.344000000     0.600000000
O     2.838000000     0.892000000     3.388000000
H     3.283000000     0.044000000     3.376000000
H     2.099000000     0.766000000     3.983000000
O     4.042000000    -1.543000000     2.946000000
H     3.275000000    -2.113000000     2.883000000
H     4.443000000    -1.773000000     3.784000000
O    -0.826000000    -0.253000000     5.400000000
H    -0.091000000     0.123000000     5.884000000
H    -0.416000000    -0.781000000     4.715000000
O     1.496000000    -2.848000000    -5.268000000
H     1.970000000    -2.148000000    -4.819000000
H     1.780000000    -2.783000000    -6.180000000
O     1.988000000    -4.508000000    -0.648000000
H     1.729000000    -4.240000000     0.234000000
H     1.164000000    -4.559000000    -1.134000000
O    -3.115000000     1.448000000    -4.639000000
H    -2.438000000     1.983000000    -4.225000000
H    -2.632000000     0.849000000    -5.208000000
O     1.228000000    -6.504000000     1.265000000
H     0.373000000    -6.787000000     1.590000000
H     1.545000000    -5.892000000     1.928000000
