158
-3042.36482
C    -0.190000000    -1.441000000     0.460000000
H    -0.379000000    -2.490000000     0.672000000
C    -0.770000000    -0.873000000    -0.629000000
H    -1.448000000    -1.446000000    -1.256000000
C    -0.506000000     0.470000000    -1.058000000
H    -1.021000000     1.008000000    -1.870000000
C     0.392000000     1.229000000    -0.313000000
H     0.560000000     2.278000000    -0.545000000
C     0.985000000     0.627000000     0.809000000
H     1.720000000     1.204000000     1.365000000
C     0.763000000    -0.720000000     1.188000000
C     1.383000000    -1.235000000     2.443000000
O     1.750000000    -0.465000000     3.330000000
O     1.375000000    -2.421000000     2.611000000
O    -2.658000000    -0.708000000    -5.164000000
H    -1.955000000    -0.549000000    -5.794000000
H    -2.693000000    -1.661000000    -5.080000000
O     2.077000000    -2.897000000     7.508000000
H     1.224000000    -3.330000000     7.536000000
H     2.056000000    -2.378000000     6.704000000
O    -3.679000000    -3.016000000    -1.484000000
H    -3.096000000    -3.667000000    -1.093000000
H    -3.589000000    -2.246000000    -0.923000000
O    -0.535000000    -5.226000000    -3.344000000
H     0.271000000    -5.597000000    -3.702000000
H    -0.238000000    -4.549000000    -2.736000000
O     2.514000000    -3.758000000     0.633000000
H     2.113000000    -3.156000000     1.259000000
H     3.234000000    -4.162000000     1.117000000
O    -5.717000000    -2.479000000     0.928000000
H    -5.341000000    -3.350000000     0.805000000
H    -4.971000000    -1.926000000     1.158000000
O     1.122000000    -6.283000000    -0.055000000
H     1.097000000    -5.333000000    -0.168000000
H     1.107000000    -6.630000000    -0.947000000
O     3.375000000     3.604000000     0.406000000
H     2.785000000     4.327000000     0.620000000
H     3.400000000     3.072000000     1.200000000
O     2.242000000    -1.105000000    -1.945000000
H     1.741000000    -1.129000000    -2.760000000
H     1.624000000    -0.777000000    -1.292000000
O    -3.756000000     3.360000000    -1.670000000
H    -4.494000000     3.844000000    -2.040000000
H    -3.801000000     2.499000000    -2.086000000
O    -4.243000000     5.700000000    -3.736000000
H    -3.570000000     5.789000000    -3.062000000
H    -4.673000000     6.555000000    -3.759000000
O    -0.942000000     4.242000000    -1.510000000
H    -1.811000000     3.844000000    -1.569000000
H    -0.638000000     4.022000000    -0.629000000
O    -4.980000000    -2.808000000    -3.960000000
H    -4.753000000    -2.150000000    -4.617000000
H    -4.271000000    -2.762000000    -3.319000000
O    -5.455000000     1.461000000     0.238000000
H    -4.792000000     1.812000000    -0.357000000
H    -5.103000000     1.627000000     1.113000000
O     6.386000000    -1.090000000     4.073000000
H     6.285000000    -0.148000000     3.936000000
H     5.751000000    -1.487000000     3.477000000
O    -3.647000000     5.716000000     0.326000000
H    -3.795000000     4.978000000    -0.265000000
H    -3.254000000     5.324000000     1.106000000
O    -2.035000000    -3.376000000    -4.946000000
H    -1.628000000    -3.773000000    -4.175000000
H    -2.253000000    -4.117000000    -5.510000000
O     3.625000000     3.322000000    -4.023000000
H     2.812000000     3.656000000    -3.646000000
H     3.662000000     3.710000000    -4.897000000
O     4.374000000    -2.978000000    -1.470000000
H     3.942000000    -2.216000000    -1.856000000
H     3.730000000    -3.332000000    -0.856000000
O     4.402000000     2.071000000    -1.612000000
H     3.854000000     2.503000000    -0.956000000
H     4.212000000     2.535000000    -2.427000000
O     5.391000000    -1.359000000     1.511000000
H     5.985000000    -1.073000000     0.817000000
H     5.407000000    -2.314000000     1.463000000
O    -3.587000000    -0.736000000     0.954000000
H    -2.696000000    -0.402000000     1.056000000
H    -4.074000000    -0.006000000     0.571000000
O     2.891000000    -4.564000000     3.589000000
H     2.483000000    -3.698000000     3.578000000
H     2.266000000    -5.129000000     3.135000000
O     3.107000000    -1.331000000     5.498000000
H     2.724000000    -0.678000000     6.084000000
H     2.798000000    -1.081000000     4.627000000
O    -2.910000000     1.948000000     1.752000000
H    -2.223000000     2.368000000     1.234000000
H    -2.515000000     1.820000000     2.615000000
O    -2.120000000    -5.174000000    -0.026000000
H    -1.971000000    -4.909000000     0.882000000
H    -1.476000000    -5.864000000    -0.183000000
O     0.844000000     4.257000000     4.289000000
H     1.432000000     3.517000000     4.440000000
H     1.119000000     4.916000000     4.927000000
O     1.814000000     5.719000000     1.325000000
H     1.948000000     6.401000000     1.984000000
H     1.576000000     6.198000000     0.530000000
O     1.084000000     3.919000000    -3.268000000
H     1.227000000     4.857000000    -3.146000000
H     0.433000000     3.687000000    -2.605000000
O    -0.117000000    -2.752000000     5.056000000
H     0.552000000    -2.676000000     4.375000000
H    -0.719000000    -3.419000000     4.727000000
O     1.306000000    -6.789000000     2.596000000
H     1.214000000    -6.797000000     1.644000000
H     1.922000000    -7.498000000     2.783000000
O     1.348000000     0.828000000     6.239000000
H     1.576000000     1.407000000     6.966000000
H     1.883000000     1.137000000     5.509000000
O    -5.962000000    -0.071000000    -4.362000000
H    -5.669000000     0.340000000    -3.549000000
H    -5.870000000     0.614000000    -5.024000000
O     5.308000000    -3.935000000     2.446000000
H     4.454000000    -3.893000000     2.875000000
H     5.240000000    -4.681000000     1.850000000
O     0.569000000     1.981000000    -5.427000000
H     0.898000000     2.708000000    -4.899000000
H     0.251000000     1.344000000    -4.787000000
O    -0.944000000    -0.336000000     6.036000000
H    -0.029000000    -0.057000000     6.080000000
H    -0.901000000    -1.268000000     5.822000000
O    -0.736000000     4.190000000     1.673000000
H    -1.312000000     4.381000000     2.413000000
H     0.146000000     4.350000000     2.008000000
O     2.476000000     1.846000000     4.102000000
H     3.311000000     2.084000000     3.698000000
H     2.187000000     1.072000000     3.618000000
O     4.594000000     1.805000000     2.310000000
H     4.876000000     0.935000000     2.027000000
H     5.378000000     2.348000000     2.232000000
O    -1.346000000     4.435000000    -5.989000000
H    -1.275000000     3.494000000    -5.825000000
H    -2.287000000     4.609000000    -5.981000000
O    -1.325000000     1.944000000     3.786000000
H    -0.671000000     1.322000000     4.104000000
H    -0.868000000     2.785000000     3.769000000
O     0.873000000    -3.553000000    -1.611000000
H     1.103000000    -3.068000000    -2.404000000
H     1.670000000    -3.537000000    -1.082000000
O    -1.357000000    -5.116000000     2.767000000
H    -1.829000000    -5.553000000     3.476000000
H    -0.456000000    -5.427000000     2.851000000
O     0.811000000    -2.211000000    -4.189000000
H     0.091000000    -2.541000000    -4.726000000
H     1.599000000    -2.562000000    -4.604000000
O     1.827000000     1.210000000    -7.519000000
H     2.151000000     1.978000000    -7.990000000
H     1.303000000     1.571000000    -6.804000000
O    -3.218000000     1.069000000    -3.096000000
H    -3.104000000     0.238000000    -3.558000000
H    -3.211000000     1.730000000    -3.788000000
O     4.302000000    -3.877000000     5.607000000
H     3.755000000    -4.261000000     4.921000000
H     4.252000000    -2.933000000     5.453000000
O    -2.758000000    -2.832000000     3.181000000
H    -2.567000000    -2.131000000     2.557000000
H    -2.215000000    -3.565000000     2.892000000
