158
-3049.67840
C    -0.998000000     0.514000000     0.888000000
H    -1.838000000     0.897000000     1.462000000
C    -0.982000000    -0.752000000     0.286000000
H    -1.801000000    -1.463000000     0.360000000
C     0.106000000    -1.152000000    -0.472000000
H     0.220000000    -2.226000000    -0.764000000
C     1.138000000    -0.280000000    -0.661000000
H     2.009000000    -0.650000000    -1.197000000
C     1.125000000     1.011000000    -0.061000000
H     1.928000000     1.697000000    -0.317000000
C     0.044000000     1.412000000     0.719000000
C    -0.034000000     2.795000000     1.298000000
O     0.735000000     3.726000000     0.931000000
O    -1.052000000     3.100000000     1.936000000
O    -1.888000000    -0.871000000    -3.584000000
H    -2.664000000    -1.214000000    -4.029000000
H    -1.173000000    -1.018000000    -4.203000000
O    -3.275000000     2.001000000     5.705000000
H    -2.322000000     1.913000000     5.746000000
H    -3.447000000     2.320000000     4.819000000
O     0.460000000    -5.079000000     3.396000000
H     1.216000000    -5.266000000     2.839000000
H     0.698000000    -5.437000000     4.251000000
O     2.954000000    -4.520000000    -5.336000000
H     2.568000000    -4.919000000    -4.556000000
H     3.671000000    -3.982000000    -4.999000000
O    -3.024000000     4.055000000     0.122000000
H    -2.275000000     3.939000000     0.705000000
H    -3.764000000     4.211000000     0.709000000
O     2.920000000     4.243000000    -0.643000000
H     2.987000000     5.166000000    -0.887000000
H     2.049000000     4.161000000    -0.254000000
O     2.670000000     7.313000000     2.065000000
H     3.372000000     7.329000000     2.716000000
H     3.125000000     7.317000000     1.223000000
O     1.629000000     4.931000000     3.083000000
H     1.348000000     4.543000000     2.254000000
H     2.267000000     5.599000000     2.831000000
O     4.303000000    -6.839000000    -1.569000000
H     3.866000000    -6.063000000    -1.216000000
H     5.173000000    -6.825000000    -1.171000000
O     0.555000000     7.468000000    -1.427000000
H    -0.036000000     6.716000000    -1.471000000
H     0.217000000     8.077000000    -2.084000000
O    -0.282000000     5.003000000    -1.123000000
H     0.091000000     4.523000000    -0.383000000
H    -1.084000000     4.527000000    -1.337000000
O    -2.734000000    -4.531000000     0.935000000
H    -3.117000000    -4.227000000     0.112000000
H    -3.303000000    -4.166000000     1.613000000
O     5.435000000     5.042000000     0.912000000
H     5.691000000     5.836000000     0.442000000
H     4.649000000     4.738000000     0.458000000
O     5.211000000     1.052000000     0.686000000
H     6.132000000     1.305000000     0.735000000
H     4.918000000     1.035000000     1.597000000
O     1.115000000     5.356000000     5.720000000
H     1.216000000     6.300000000     5.845000000
H     1.318000000     5.215000000     4.795000000
O     1.886000000    -5.603000000    -3.069000000
H     2.347000000    -5.149000000    -2.363000000
H     1.820000000    -6.510000000    -2.767000000
O    -1.218000000    -2.853000000     3.467000000
H    -1.809000000    -3.437000000     3.942000000
H    -0.481000000    -3.410000000     3.216000000
O     0.429000000    -1.795000000    -5.120000000
H     0.223000000    -1.139000000    -5.786000000
H     1.316000000    -1.576000000    -4.834000000
O    -4.615000000     0.362000000     2.458000000
H    -4.570000000    -0.214000000     1.695000000
H    -4.199000000    -0.137000000     3.160000000
O     3.277000000    -1.046000000    -4.972000000
H     3.867000000    -1.445000000    -4.332000000
H     3.652000000    -0.181000000    -5.137000000
O    -4.644000000    -3.488000000     2.613000000
H    -4.071000000    -2.961000000     3.170000000
H    -5.166000000    -2.845000000     2.132000000
O    -1.559000000    -6.555000000    -4.562000000
H    -1.517000000    -6.148000000    -5.427000000
H    -0.925000000    -6.067000000    -4.037000000
O    -5.235000000    -2.973000000    -1.990000000
H    -5.691000000    -3.211000000    -2.798000000
H    -4.361000000    -3.351000000    -2.088000000
O    -4.561000000     2.507000000    -1.542000000
H    -5.366000000     3.026000000    -1.541000000
H    -3.914000000     3.067000000    -1.114000000
O     4.973000000    -2.208000000    -0.563000000
H     5.456000000    -1.713000000    -1.225000000
H     4.906000000    -1.611000000     0.182000000
O     2.184000000    -1.063000000     2.359000000
H     1.768000000    -0.618000000     1.620000000
H     2.295000000    -0.379000000     3.018000000
O     3.272000000     6.862000000    -1.374000000
H     3.831000000     7.601000000    -1.614000000
H     2.382000000     7.170000000    -1.547000000
O     3.390000000    -4.366000000    -1.054000000
H     3.785000000    -3.510000000    -1.220000000
H     2.984000000    -4.278000000    -0.192000000
O    -0.336000000    -6.437000000     0.409000000
H    -0.461000000    -6.916000000    -0.410000000
H    -1.010000000    -5.757000000     0.394000000
O    -1.380000000     5.603000000     2.967000000
H    -1.157000000     4.748000000     2.600000000
H    -0.682000000     6.184000000     2.662000000
O    -3.389000000    -1.482000000     4.319000000
H    -2.480000000    -1.750000000     4.188000000
H    -3.487000000    -1.420000000     5.269000000
O    -3.726000000     2.860000000     2.763000000
H    -2.804000000     2.838000000     2.510000000
H    -4.147000000     2.219000000     2.191000000
O     4.815000000     2.512000000    -1.659000000
H     4.094000000     3.141000000    -1.625000000
H     4.626000000     1.893000000    -0.955000000
O     2.279000000    -3.670000000     1.262000000
H     2.211000000    -2.753000000     1.528000000
H     1.459000000    -3.847000000     0.801000000
O    -2.864000000     7.235000000     0.714000000
H    -2.848000000     6.325000000     0.416000000
H    -1.957000000     7.425000000     0.953000000
O     1.916000000     5.383000000    -3.432000000
H     2.599000000     5.489000000    -2.769000000
H     1.351000000     4.693000000    -3.086000000
O    -2.290000000    -6.729000000     2.669000000
H    -1.356000000    -6.537000000     2.577000000
H    -2.728000000    -5.996000000     2.236000000
O    -5.874000000    -1.610000000     0.737000000
H    -6.763000000    -1.265000000     0.819000000
H    -5.882000000    -2.104000000    -0.083000000
O    -3.542000000     5.804000000     4.338000000
H    -3.941000000     4.966000000     4.102000000
H    -2.694000000     5.799000000     3.895000000
O     0.470000000    -1.225000000     5.455000000
H    -0.095000000    -1.950000000     5.190000000
H     0.915000000    -0.961000000     4.650000000
O     4.920000000    -3.156000000    -3.741000000
H     5.359000000    -3.988000000    -3.569000000
H     5.184000000    -2.591000000    -3.015000000
O    -4.982000000    -0.454000000    -3.032000000
H    -4.886000000     0.305000000    -2.457000000
H    -4.964000000    -1.207000000    -2.441000000
O    -0.087000000     7.540000000     1.154000000
H     0.810000000     7.545000000     1.487000000
H     0.003000000     7.722000000     0.219000000
O    -0.299000000    -4.076000000    -3.604000000
H     0.541000000    -4.517000000    -3.482000000
H    -0.112000000    -3.368000000    -4.220000000
O    -6.977000000     1.684000000     3.240000000
H    -7.415000000     1.021000000     3.774000000
H    -6.201000000     1.242000000     2.897000000
O    -2.799000000    -4.043000000    -2.195000000
H    -2.634000000    -4.924000000    -2.532000000
H    -2.061000000    -3.523000000    -2.511000000
O     2.327000000    -6.990000000     1.938000000
H     1.741000000    -7.631000000     2.341000000
H     1.880000000    -6.731000000     1.132000000
O    -1.134000000     1.532000000    -2.530000000
H    -1.481000000     0.678000000    -2.789000000
H    -0.433000000     1.328000000    -1.912000000
