158
-3038.98849
C    -0.297000000    -1.042000000     0.993000000
H    -0.577000000    -1.874000000     1.635000000
C    -0.639000000    -1.111000000    -0.351000000
H    -1.172000000    -1.975000000    -0.739000000
C    -0.354000000    -0.019000000    -1.165000000
H    -0.831000000     0.078000000    -2.184000000
C     0.399000000     1.084000000    -0.669000000
H     0.598000000     1.868000000    -1.395000000
C     0.836000000     1.101000000     0.632000000
H     1.273000000     1.979000000     1.101000000
C     0.553000000    -0.035000000     1.463000000
C     1.083000000    -0.127000000     2.936000000
O     1.365000000     0.959000000     3.458000000
O     1.017000000    -1.190000000     3.478000000
O    -4.045000000    -0.462000000    -6.081000000
H    -3.989000000    -0.205000000    -7.002000000
H    -3.134000000    -0.547000000    -5.801000000
O    -4.465000000    -1.878000000     0.753000000
H    -3.929000000    -2.442000000     0.196000000
H    -4.076000000    -1.009000000     0.659000000
O     1.794000000    -3.623000000    -3.383000000
H     2.682000000    -3.865000000    -3.646000000
H     1.907000000    -2.828000000    -2.861000000
O    -2.508000000    -3.417000000    -5.226000000
H    -2.877000000    -3.628000000    -6.083000000
H    -3.175000000    -3.700000000    -4.601000000
O     0.472000000     3.472000000    -6.737000000
H    -0.134000000     3.670000000    -6.023000000
H     1.035000000     4.244000000    -6.794000000
O     3.502000000    -1.471000000     1.337000000
H     2.550000000    -1.537000000     1.415000000
H     3.838000000    -1.972000000     2.080000000
O     1.617000000    -4.240000000    -0.362000000
H     1.673000000    -3.637000000    -1.103000000
H     2.488000000    -4.214000000     0.035000000
O     3.675000000     2.066000000    -1.344000000
H     3.149000000     2.078000000    -2.143000000
H     3.856000000     2.988000000    -1.161000000
O    -0.306000000    -2.800000000    -7.703000000
H    -1.088000000    -3.349000000    -7.770000000
H    -0.047000000    -2.862000000    -6.784000000
O    -3.172000000     3.416000000    -1.787000000
H    -2.421000000     4.009000000    -1.774000000
H    -2.935000000     2.743000000    -2.425000000
O    -1.019000000     4.894000000    -2.140000000
H    -1.057000000     5.794000000    -2.463000000
H    -0.532000000     4.954000000    -1.319000000
O     0.293000000    -5.871000000     5.340000000
H     0.446000000    -4.929000000     5.268000000
H     0.962000000    -6.266000000     4.781000000
O     1.965000000     0.099000000    -5.084000000
H     2.024000000     0.828000000    -4.466000000
H     2.038000000     0.510000000    -5.945000000
O    -5.804000000     0.644000000    -4.282000000
H    -5.290000000     1.167000000    -3.666000000
H    -5.185000000     0.414000000    -4.975000000
O    -4.539000000    -3.670000000    -3.042000000
H    -4.483000000    -2.766000000    -3.352000000
H    -4.204000000    -3.636000000    -2.146000000
O    -2.579000000     4.334000000     0.812000000
H    -2.945000000     3.982000000     0.001000000
H    -3.202000000     5.009000000     1.082000000
O    -1.337000000    -0.489000000    -5.787000000
H    -1.133000000    -0.475000000    -6.722000000
H    -0.867000000    -1.253000000    -5.451000000
O     2.303000000     2.464000000    -3.741000000
H     1.685000000     3.194000000    -3.757000000
H     3.087000000     2.804000000    -4.173000000
O     5.404000000     0.438000000    -0.065000000
H     4.798000000     0.964000000    -0.587000000
H     4.884000000     0.145000000     0.682000000
O     3.988000000     5.061000000    -1.699000000
H     3.641000000     5.363000000    -0.860000000
H     3.242000000     5.103000000    -2.296000000
O    -0.880000000    -5.313000000    -0.964000000
H    -0.848000000    -6.244000000    -1.183000000
H     0.018000000    -5.095000000    -0.712000000
O     5.615000000     1.099000000     3.145000000
H     6.010000000     1.589000000     2.424000000
H     5.287000000     0.297000000     2.738000000
O    -3.414000000     0.562000000     0.704000000
H    -2.819000000     0.931000000     0.052000000
H    -2.988000000     0.736000000     1.543000000
O     1.599000000    -3.733000000     3.667000000
H     1.228000000    -2.858000000     3.554000000
H     1.004000000    -4.310000000     3.189000000
O     3.230000000    -0.347000000     5.324000000
H     3.982000000     0.242000000     5.394000000
H     2.711000000     0.012000000     4.604000000
O    -3.019000000    -3.759000000    -0.414000000
H    -2.404000000    -4.378000000    -0.806000000
H    -3.457000000    -4.259000000     0.275000000
O    -0.999000000     4.811000000     4.792000000
H    -0.566000000     4.360000000     4.067000000
H    -0.335000000     5.410000000     5.132000000
O     2.268000000     6.320000000     0.395000000
H     1.516000000     5.736000000     0.295000000
H     2.103000000     7.031000000    -0.224000000
O     1.983000000     5.153000000    -3.458000000
H     2.443000000     5.812000000    -3.978000000
H     1.083000000     5.474000000    -3.407000000
O    -0.667000000    -1.509000000     5.328000000
H     0.056000000    -1.338000000     4.724000000
H    -1.314000000    -1.977000000     4.801000000
O    -0.639000000    -4.661000000     2.122000000
H    -0.867000000    -4.433000000     1.221000000
H    -0.832000000    -5.596000000     2.188000000
O     1.154000000     1.907000000     6.059000000
H     1.910000000     2.335000000     6.461000000
H     1.488000000     1.557000000     5.233000000
O     5.158000000    -2.058000000     3.467000000
H     5.775000000    -1.960000000     4.192000000
H     4.304000000    -1.856000000     3.850000000
O    -1.081000000     3.537000000    -4.452000000
H    -1.774000000     3.962000000    -4.957000000
H    -1.032000000     4.041000000    -3.640000000
O    -1.372000000     0.694000000     6.806000000
H    -0.669000000     1.338000000     6.893000000
H    -0.999000000     0.004000000     6.257000000
O     0.147000000     4.454000000     0.521000000
H    -0.775000000     4.452000000     0.775000000
H     0.609000000     4.128000000     1.293000000
O    -0.472000000    -5.011000000    -4.884000000
H    -1.107000000    -4.298000000    -4.821000000
H     0.088000000    -4.901000000    -4.115000000
O     1.334000000     3.658000000     2.817000000
H     2.068000000     3.877000000     3.390000000
H     1.258000000     2.705000000     2.878000000
O     3.348000000     4.589000000     4.750000000
H     3.457000000     5.529000000     4.605000000
H     3.315000000     4.497000000     5.703000000
O    -2.370000000     0.985000000     3.430000000
H    -1.650000000     0.637000000     3.957000000
H    -3.071000000     0.341000000     3.530000000
O     2.153000000    -1.312000000    -1.957000000
H     2.742000000    -0.573000000    -1.805000000
H     1.329000000    -1.051000000    -1.546000000
O    -2.382000000    -3.383000000     4.138000000
H    -2.944000000    -4.054000000     4.525000000
H    -1.803000000    -3.866000000     3.549000000
O     0.562000000    -2.132000000    -5.158000000
H     1.031000000    -1.298000000    -5.153000000
H     1.064000000    -2.693000000    -4.566000000
O    -2.680000000     1.378000000    -3.868000000
H    -2.341000000     2.247000000    -4.081000000
H    -2.234000000     0.790000000    -4.477000000
O     3.236000000    -3.486000000     5.824000000
H     2.600000000    -3.481000000     5.109000000
H     2.979000000    -2.750000000     6.379000000
O    -3.768000000    -1.313000000     3.326000000
H    -4.076000000    -1.654000000     2.486000000
H    -3.173000000    -1.988000000     3.654000000
O     2.149000000    -1.389000000     7.492000000
H     2.546000000    -0.867000000     6.795000000
H     1.209000000    -1.232000000     7.403000000
O     4.711000000    -0.180000000    -5.481000000
H     4.768000000     0.551000000    -4.865000000
H     3.786000000    -0.425000000    -5.476000000
