158
-3014.96244
C    -0.552000000    -0.686000000     1.252000000
H    -1.027000000    -1.193000000     2.088000000
C    -0.749000000    -1.118000000    -0.085000000
H    -1.452000000    -1.946000000    -0.116000000
C    -0.099000000    -0.427000000    -1.119000000
H    -0.270000000    -0.750000000    -2.161000000
C     0.490000000     0.834000000    -0.920000000
H     0.933000000     1.244000000    -1.824000000
C     0.561000000     1.389000000     0.347000000
H     0.993000000     2.363000000     0.565000000
C     0.088000000     0.575000000     1.429000000
C     0.374000000     0.986000000     2.869000000
O     0.910000000     2.065000000     3.048000000
O    -0.046000000     0.318000000     3.813000000
O     0.951000000     0.010000000    -4.738000000
H     0.648000000    -0.145000000    -5.633000000
H     0.689000000     0.911000000    -4.549000000
O    -1.740000000     2.007000000     7.281000000
H    -2.037000000     1.122000000     7.067000000
H    -0.889000000     2.084000000     6.850000000
O    -5.101000000    -1.022000000     0.416000000
H    -5.082000000    -0.065000000     0.435000000
H    -4.183000000    -1.281000000     0.503000000
O    -0.395000000    -4.281000000    -5.027000000
H    -0.026000000    -4.116000000    -5.895000000
H     0.093000000    -3.697000000    -4.445000000
O     1.439000000    -2.661000000    -3.527000000
H     1.546000000    -2.709000000    -2.577000000
H     2.164000000    -2.110000000    -3.822000000
O     3.869000000    -1.563000000     2.656000000
H     3.124000000    -1.532000000     3.256000000
H     4.487000000    -0.922000000     3.007000000
O     1.949000000    -5.068000000    -0.233000000
H     2.812000000    -4.671000000    -0.350000000
H     1.702000000    -5.368000000    -1.108000000
O     4.907000000     1.909000000    -0.747000000
H     5.656000000     2.109000000    -1.309000000
H     4.273000000     1.494000000    -1.332000000
O    -0.027000000    -1.095000000    -7.376000000
H     0.255000000    -0.669000000    -8.185000000
H    -0.346000000    -1.953000000    -7.656000000
O    -1.353000000     5.103000000    -2.380000000
H    -0.602000000     4.940000000    -2.950000000
H    -2.116000000     4.976000000    -2.945000000
O    -4.602000000     0.103000000     5.586000000
H    -4.185000000    -0.218000000     6.385000000
H    -3.887000000     0.488000000     5.080000000
O     0.605000000    -5.736000000    -2.693000000
H    -0.282000000    -5.951000000    -2.402000000
H     0.501000000    -4.936000000    -3.208000000
O    -4.974000000     1.479000000    -4.811000000
H    -4.491000000     2.298000000    -4.700000000
H    -4.478000000     0.838000000    -4.302000000
O     4.367000000    -3.723000000    -1.253000000
H     3.910000000    -2.902000000    -1.438000000
H     5.214000000    -3.629000000    -1.687000000
O     3.533000000     1.076000000    -3.218000000
H     3.818000000     1.988000000    -3.164000000
H     2.819000000     1.086000000    -3.856000000
O    -1.734000000    -1.730000000    -4.404000000
H    -1.034000000    -1.107000000    -4.208000000
H    -1.278000000    -2.523000000    -4.685000000
O    -4.344000000    -1.320000000    -4.672000000
H    -4.506000000    -2.215000000    -4.970000000
H    -3.462000000    -1.346000000    -4.302000000
O    -3.328000000    -6.088000000     1.528000000
H    -3.256000000    -7.024000000     1.713000000
H    -2.572000000    -5.698000000     1.966000000
O     0.139000000     2.642000000    -4.532000000
H    -0.647000000     2.684000000    -5.077000000
H     0.516000000     3.520000000    -4.588000000
O     4.507000000     3.578000000    -3.540000000
H     4.244000000     4.413000000    -3.152000000
H     5.310000000     3.780000000    -4.021000000
O     5.198000000     3.325000000     1.495000000
H     5.265000000     2.678000000     0.792000000
H     4.608000000     2.925000000     2.134000000
O     1.422000000    -3.136000000     1.895000000
H     1.215000000    -3.726000000     2.620000000
H     1.243000000    -3.651000000     1.108000000
O    -3.164000000     1.189000000    -2.731000000
H    -3.153000000     2.102000000    -3.018000000
H    -3.046000000     1.234000000    -1.783000000
O     1.919000000    -1.225000000     4.490000000
H     1.235000000    -0.616000000     4.212000000
H     1.477000000    -2.071000000     4.553000000
O     0.688000000     1.807000000     5.982000000
H     1.645000000     1.807000000     5.980000000
H     0.446000000     1.508000000     5.106000000
O    -2.020000000    -4.075000000    -2.401000000
H    -2.168000000    -3.676000000    -3.258000000
H    -2.832000000    -3.917000000    -1.920000000
O    -1.528000000    -5.995000000    -0.627000000
H    -1.469000000    -5.223000000    -1.190000000
H    -2.154000000    -5.748000000     0.054000000
O     3.442000000     4.996000000     5.843000000
H     2.901000000     5.199000000     5.080000000
H     3.329000000     4.054000000     5.974000000
O     2.724000000     6.074000000     2.479000000
H     1.827000000     5.955000000     2.169000000
H     3.171000000     5.262000000     2.239000000
O    -1.142000000    -1.488000000     5.363000000
H    -0.771000000    -0.762000000     4.862000000
H    -1.910000000    -1.759000000     4.859000000
O    -1.030000000    -5.515000000     2.939000000
H    -0.213000000    -5.694000000     2.475000000
H    -0.809000000    -4.813000000     3.552000000
O    -0.359000000     4.271000000     3.101000000
H    -0.099000000     4.528000000     3.985000000
H     0.119000000     3.458000000     2.937000000
O     3.552000000     2.190000000     6.127000000
H     4.428000000     2.548000000     5.982000000
H     3.679000000     1.506000000     6.785000000
O     0.841000000     5.327000000    -4.158000000
H     0.854000000     6.284000000    -4.172000000
H     1.600000000     5.085000000    -3.628000000
O    -2.540000000     1.334000000     4.371000000
H    -2.459000000     2.250000000     4.104000000
H    -1.756000000     0.912000000     4.021000000
O    -2.810000000    -5.503000000    -5.440000000
H    -3.522000000    -4.869000000    -5.531000000
H    -2.094000000    -5.003000000    -5.049000000
O     1.240000000    -1.564000000     7.391000000
H     1.703000000    -2.392000000     7.261000000
H     0.959000000    -1.307000000     6.512000000
O     3.599000000     2.276000000     3.298000000
H     2.668000000     2.406000000     3.124000000
H     3.621000000     1.688000000     4.054000000
O    -2.716000000     3.398000000     1.945000000
H    -1.896000000     3.786000000     2.252000000
H    -3.070000000     4.041000000     1.331000000
O    -2.454000000     0.500000000    -6.755000000
H    -3.262000000     0.293000000    -6.287000000
H    -1.888000000    -0.257000000    -6.603000000
O     2.550000000    -1.671000000    -0.224000000
H     2.529000000    -1.822000000     0.721000000
H     1.656000000    -1.407000000    -0.444000000
O    -3.213000000    -2.122000000     3.711000000
H    -3.728000000    -2.927000000     3.755000000
H    -3.843000000    -1.424000000     3.887000000
O    -4.193000000    -3.980000000    -0.498000000
H    -4.180000000    -4.340000000     0.389000000
H    -5.108000000    -3.741000000    -0.645000000
O     3.147000000    -1.222000000    -6.856000000
H     3.760000000    -0.520000000    -7.074000000
H     2.291000000    -0.793000000    -6.834000000
O     0.367000000    -3.499000000     4.556000000
H     0.464000000    -4.269000000     5.117000000
H    -0.300000000    -2.968000000     4.991000000
O     4.254000000    -2.041000000     5.762000000
H     3.475000000    -1.629000000     5.388000000
H     4.987000000    -1.622000000     5.310000000
O    -2.849000000     0.895000000     0.158000000
H    -2.041000000     0.388000000     0.241000000
H    -2.774000000     1.576000000     0.827000000
O     4.469000000    -1.015000000    -2.015000000
H     4.039000000    -0.344000000    -2.545000000
H     3.976000000    -1.024000000    -1.195000000
