158
-3017.86931
C    -0.898000000    -0.580000000     1.030000000
H    -1.475000000    -1.132000000     1.768000000
C    -0.637000000    -1.173000000    -0.168000000
H    -0.968000000    -2.191000000    -0.357000000
C     0.291000000    -0.536000000    -1.065000000
H     0.491000000    -1.075000000    -1.974000000
C     0.827000000     0.722000000    -0.785000000
H     1.535000000     1.190000000    -1.463000000
C     0.468000000     1.379000000     0.427000000
H     0.940000000     2.332000000     0.650000000
C    -0.453000000     0.714000000     1.347000000
C    -0.791000000     1.382000000     2.679000000
O    -0.564000000     2.570000000     2.847000000
O    -1.337000000     0.700000000     3.537000000
O     0.612000000     1.369000000    -4.350000000
H     1.281000000     0.688000000    -4.414000000
H    -0.126000000     0.940000000    -3.917000000
O    -4.615000000    -1.622000000     1.378000000
H    -4.688000000    -2.118000000     0.563000000
H    -4.161000000    -0.817000000     1.130000000
O     2.200000000    -2.723000000    -6.943000000
H     1.681000000    -2.956000000    -6.174000000
H     1.552000000    -2.491000000    -7.608000000
O     5.207000000    -1.934000000     0.612000000
H     4.765000000    -2.693000000     0.230000000
H     4.535000000    -1.253000000     0.637000000
O     5.803000000     1.733000000     1.567000000
H     5.388000000     2.049000000     0.764000000
H     6.333000000     2.471000000     1.868000000
O     1.362000000    -5.120000000    -0.957000000
H     0.767000000    -5.119000000    -1.707000000
H     1.127000000    -5.908000000    -0.467000000
O     4.489000000     4.200000000    -3.444000000
H     4.190000000     3.300000000    -3.311000000
H     5.152000000     4.133000000    -4.132000000
O    -2.396000000     0.023000000    -6.616000000
H    -2.228000000    -0.560000000    -5.876000000
H    -1.929000000    -0.379000000    -7.348000000
O     0.285000000    -3.335000000    -5.210000000
H    -0.636000000    -3.162000000    -5.016000000
H     0.709000000    -3.367000000    -4.353000000
O    -4.957000000     4.492000000     0.883000000
H    -5.176000000     5.374000000     1.183000000
H    -4.297000000     4.184000000     1.504000000
O     0.689000000    -3.871000000     1.524000000
H     1.179000000    -4.048000000     0.721000000
H     1.240000000    -3.256000000     2.010000000
O     4.930000000    -4.684000000    -3.647000000
H     4.901000000    -4.370000000    -4.551000000
H     4.409000000    -4.049000000    -3.156000000
O    -0.968000000    -6.886000000    -4.840000000
H    -0.714000000    -6.431000000    -4.037000000
H    -1.349000000    -7.711000000    -4.537000000
O     1.978000000    -3.149000000    -2.922000000
H     2.640000000    -2.459000000    -2.891000000
H     2.023000000    -3.563000000    -2.060000000
O     4.281000000    -4.311000000    -0.744000000
H     3.708000000    -5.069000000    -0.623000000
H     5.101000000    -4.681000000    -1.073000000
O     4.625000000     1.293000000    -3.559000000
H     5.552000000     1.161000000    -3.754000000
H     4.204000000     1.344000000    -4.417000000
O    -4.085000000    -5.074000000     1.914000000
H    -4.952000000    -4.847000000     2.249000000
H    -3.512000000    -5.027000000     2.679000000
O     0.466000000     4.280000000    -4.647000000
H     0.319000000     3.381000000    -4.354000000
H     1.346000000     4.493000000    -4.335000000
O    -2.705000000    -2.551000000    -5.068000000
H    -2.647000000    -2.638000000    -4.116000000
H    -3.434000000    -1.947000000    -5.210000000
O    -2.005000000    -4.731000000     0.385000000
H    -2.822000000    -4.605000000     0.868000000
H    -1.318000000    -4.513000000     1.015000000
O    -1.096000000     5.158000000     5.362000000
H    -1.840000000     4.597000000     5.143000000
H    -0.355000000     4.555000000     5.436000000
O    -3.763000000     0.759000000     0.098000000
H    -3.727000000     0.194000000    -0.674000000
H    -3.146000000     1.465000000    -0.093000000
O    -5.969000000     0.803000000     5.503000000
H    -5.434000000     1.205000000     6.188000000
H    -5.374000000     0.707000000     4.760000000
O     4.589000000     6.018000000     1.892000000
H     3.792000000     5.551000000     1.644000000
H     5.181000000     5.892000000     1.151000000
O     3.959000000     1.503000000    -0.633000000
H     4.140000000     1.193000000    -1.521000000
H     3.643000000     0.728000000    -0.169000000
O     0.946000000    -6.683000000     1.932000000
H     0.157000000    -7.019000000     2.357000000
H     0.860000000    -5.731000000     1.985000000
O     3.344000000     6.169000000    -1.720000000
H     3.163000000     5.835000000    -0.842000000
H     3.503000000     5.385000000    -2.246000000
O     1.311000000    -1.283000000     3.251000000
H     0.703000000    -0.807000000     3.816000000
H     1.650000000    -1.987000000     3.804000000
O    -1.825000000     0.218000000    -3.320000000
H    -2.747000000     0.315000000    -3.081000000
H    -1.606000000    -0.680000000    -3.073000000
O    -1.811000000     2.171000000     5.586000000
H    -1.616000000     1.756000000     4.745000000
H    -2.485000000     1.616000000     5.977000000
O     3.959000000    -1.305000000    -2.444000000
H     3.976000000    -0.459000000    -2.892000000
H     4.879000000    -1.561000000    -2.380000000
O    -3.773000000     4.169000000     3.401000000
H    -4.409000000     4.089000000     4.112000000
H    -3.316000000     3.327000000     3.393000000
O    -2.404000000    -2.970000000    -2.127000000
H    -2.035000000    -3.524000000    -1.439000000
H    -3.223000000    -2.641000000    -1.755000000
O    -0.783000000    -5.174000000    -2.529000000
H    -1.371000000    -4.526000000    -2.917000000
H    -1.076000000    -5.251000000    -1.621000000
O     2.690000000     4.620000000     0.417000000
H     1.821000000     4.721000000     0.806000000
H     2.815000000     3.674000000     0.350000000
O    -0.422000000     2.123000000    -7.004000000
H    -0.090000000     1.789000000    -6.170000000
H    -1.126000000     1.519000000    -7.240000000
O    -1.548000000    -1.546000000     5.144000000
H    -1.351000000    -0.653000000     4.862000000
H    -1.365000000    -1.546000000     6.084000000
O    -1.495000000    -4.232000000     3.313000000
H    -1.628000000    -3.367000000     3.700000000
H    -0.569000000    -4.247000000     3.071000000
O     0.377000000     5.148000000     2.265000000
H     0.698000000     5.442000000     3.117000000
H     0.026000000     4.273000000     2.430000000
O     1.627000000     1.499000000     6.769000000
H     1.839000000     0.569000000     6.851000000
H     1.246000000     1.733000000     7.615000000
O    -2.259000000     1.183000000     8.851000000
H    -1.625000000     1.270000000     8.139000000
H    -2.097000000     0.310000000     9.211000000
O     1.101000000     3.348000000     4.721000000
H     1.323000000     2.674000000     5.363000000
H     0.518000000     2.908000000     4.103000000
O    -2.174000000     5.893000000     0.916000000
H    -1.280000000     6.068000000     1.210000000
H    -2.708000000     5.978000000     1.705000000
O    -3.781000000     1.080000000     3.646000000
H    -2.830000000     1.074000000     3.534000000
H    -4.107000000     0.498000000     2.960000000
O    -4.887000000    -2.880000000    -1.045000000
H    -4.947000000    -3.821000000    -0.877000000
H    -5.786000000    -2.614000000    -1.239000000
O    -2.261000000     3.087000000    -0.347000000
H    -1.340000000     2.930000000    -0.142000000
H    -2.449000000     3.944000000     0.036000000
O    -3.612000000    -3.564000000     5.300000000
H    -3.024000000    -4.111000000     4.779000000
H    -3.128000000    -2.748000000     5.429000000
O     2.694000000    -0.867000000     1.012000000
H     1.901000000    -0.819000000     0.477000000
H     2.378000000    -0.815000000     1.914000000
