158
-3014.28192
C    -1.291000000     0.395000000     0.626000000
H    -2.327000000     0.503000000     0.936000000
C    -0.926000000    -0.919000000     0.299000000
H    -1.712000000    -1.657000000     0.431000000
C     0.327000000    -1.209000000    -0.268000000
H     0.573000000    -2.162000000    -0.627000000
C     1.215000000    -0.147000000    -0.476000000
H     2.171000000    -0.235000000    -0.985000000
C     0.871000000     1.139000000    -0.095000000
H     1.520000000     1.986000000    -0.303000000
C    -0.372000000     1.448000000     0.456000000
C    -0.684000000     2.916000000     0.765000000
O     0.233000000     3.752000000     0.704000000
O    -1.813000000     3.332000000     1.035000000
O    -4.300000000    -1.606000000    -2.224000000
H    -4.704000000    -2.050000000    -1.478000000
H    -4.839000000    -1.859000000    -2.974000000
O     2.006000000    -4.564000000    -3.638000000
H     1.628000000    -5.409000000    -3.880000000
H     2.704000000    -4.782000000    -3.020000000
O    -2.577000000     4.584000000    -1.200000000
H    -2.505000000     4.193000000    -0.329000000
H    -1.853000000     5.209000000    -1.242000000
O     2.936000000     4.092000000    -0.273000000
H     2.953000000     4.092000000    -1.230000000
H     2.012000000     3.980000000    -0.049000000
O    -2.452000000    -3.777000000    -3.982000000
H    -1.990000000    -3.766000000    -3.144000000
H    -1.804000000    -3.469000000    -4.617000000
O     1.025000000     3.939000000     3.169000000
H     0.716000000     3.789000000     2.276000000
H     1.348000000     4.840000000     3.162000000
O     1.022000000    -3.996000000    -6.341000000
H     1.108000000    -3.043000000    -6.379000000
H     1.164000000    -4.212000000    -5.419000000
O     2.144000000    -1.145000000    -6.604000000
H     2.044000000    -0.344000000    -7.118000000
H     2.053000000    -0.859000000    -5.695000000
O    -0.107000000    -6.964000000    -1.915000000
H     0.112000000    -6.288000000    -1.274000000
H    -0.727000000    -6.540000000    -2.508000000
O     2.022000000     1.569000000     4.057000000
H     1.815000000     0.901000000     3.403000000
H     1.599000000     2.363000000     3.731000000
O    -0.048000000     5.415000000    -1.579000000
H    -0.042000000     5.218000000    -0.642000000
H    -0.021000000     6.371000000    -1.623000000
O     5.025000000     4.751000000     1.604000000
H     5.559000000     4.597000000     0.824000000
H     4.123000000     4.744000000     1.281000000
O     2.670000000    -2.171000000     3.414000000
H     1.804000000    -1.936000000     3.081000000
H     2.838000000    -3.041000000     3.050000000
O     1.013000000     4.409000000     5.826000000
H     0.993000000     5.366000000     5.851000000
H     0.787000000     4.189000000     4.922000000
O    -1.117000000    -0.527000000    -5.171000000
H    -0.502000000    -1.129000000    -4.750000000
H    -0.919000000    -0.597000000    -6.105000000
O     0.500000000    -2.086000000    -3.713000000
H     0.928000000    -2.942000000    -3.709000000
H     1.035000000    -1.548000000    -3.129000000
O    -6.069000000     0.363000000     3.340000000
H    -6.177000000    -0.221000000     2.590000000
H    -5.389000000    -0.052000000     3.871000000
O     3.411000000    -4.577000000     2.397000000
H     4.237000000    -4.524000000     1.916000000
H     3.569000000    -5.237000000     3.071000000
O     6.039000000    -0.438000000    -2.741000000
H     5.771000000    -1.307000000    -2.441000000
H     5.362000000     0.150000000    -2.407000000
O    -4.176000000    -3.425000000     2.578000000
H    -3.948000000    -3.998000000     3.310000000
H    -3.949000000    -2.546000000     2.881000000
O    -4.921000000     3.422000000     0.457000000
H    -5.349000000     4.273000000     0.365000000
H    -4.031000000     3.566000000     0.136000000
O    -5.692000000    -3.289000000    -0.592000000
H    -6.126000000    -3.525000000    -1.413000000
H    -4.966000000    -3.908000000    -0.519000000
O    -4.750000000     4.993000000    -2.851000000
H    -4.802000000     5.949000000    -2.832000000
H    -3.935000000     4.788000000    -2.393000000
O     5.458000000    -1.812000000     1.854000000
H     4.952000000    -1.247000000     2.437000000
H     6.073000000    -1.220000000     1.420000000
O    -1.649000000     1.141000000     4.266000000
H    -1.841000000     2.074000000     4.166000000
H    -0.979000000     1.106000000     4.948000000
O     4.558000000     1.850000000    -3.250000000
H     4.910000000     2.704000000    -3.502000000
H     4.649000000     1.825000000    -2.298000000
O     0.611000000    -0.488000000     2.769000000
H     0.561000000    -0.261000000     1.841000000
H    -0.143000000    -0.049000000     3.164000000
O     2.339000000     0.096000000    -3.861000000
H     1.699000000     0.798000000    -3.978000000
H     3.181000000     0.547000000    -3.801000000
O     3.884000000    -5.262000000    -1.544000000
H     3.033000000    -5.171000000    -1.115000000
H     4.355000000    -5.901000000    -1.008000000
O    -1.062000000    -4.690000000     1.145000000
H    -1.839000000    -5.249000000     1.140000000
H    -1.066000000    -4.284000000     2.012000000
O    -0.832000000     6.062000000     1.392000000
H    -0.971000000     5.117000000     1.335000000
H     0.114000000     6.159000000     1.501000000
O    -3.783000000    -0.724000000     4.358000000
H    -3.458000000     0.080000000     3.952000000
H    -3.046000000    -1.044000000     4.878000000
O    -1.367000000     3.336000000    -3.255000000
H    -1.244000000     2.428000000    -2.980000000
H    -1.563000000     3.807000000    -2.445000000
O    -2.578000000     3.625000000     3.477000000
H    -2.379000000     3.570000000     2.542000000
H    -3.490000000     3.912000000     3.511000000
O     5.073000000     1.673000000    -0.441000000
H     4.665000000     2.490000000    -0.155000000
H     5.431000000     1.291000000     0.360000000
O     1.960000000    -5.911000000     0.594000000
H     1.086000000    -5.806000000     0.970000000
H     2.538000000    -5.444000000     1.197000000
O    -3.058000000     7.445000000     0.655000000
H    -2.446000000     6.725000000     0.805000000
H    -2.974000000     7.998000000     1.432000000
O     1.592000000     4.377000000    -4.075000000
H     1.378000000     3.493000000    -4.372000000
H     1.094000000     4.485000000    -3.265000000
O    -6.046000000    -0.623000000     0.786000000
H    -5.632000000    -0.025000000     0.164000000
H    -5.737000000    -1.491000000     0.525000000
O    -2.799000000     4.447000000     6.118000000
H    -3.732000000     4.335000000     5.935000000
H    -2.378000000     4.381000000     5.260000000
O    -2.293000000     6.795000000     3.657000000
H    -1.782000000     6.189000000     3.120000000
H    -1.655000000     7.439000000     3.964000000
O    -5.096000000     4.192000000     3.827000000
H    -5.259000000     3.356000000     3.390000000
H    -5.877000000     4.714000000     3.645000000
O     5.327000000    -2.653000000    -1.444000000
H     5.183000000    -3.571000000    -1.672000000
H     5.293000000    -2.635000000    -0.488000000
O    -6.165000000     1.548000000    -1.527000000
H    -6.534000000     1.440000000    -2.404000000
H    -5.252000000     1.793000000    -1.680000000
O     1.721000000     6.778000000     2.900000000
H     2.661000000     6.849000000     2.736000000
H     1.354000000     7.588000000     2.546000000
O    -1.336000000    -3.565000000    -1.374000000
H    -0.622000000    -2.931000000    -1.431000000
H    -1.358000000    -3.820000000    -0.452000000
O    -3.730000000    -5.100000000    -1.194000000
H    -4.287000000    -5.423000000    -1.902000000
H    -3.050000000    -4.592000000    -1.636000000
O    -2.277000000     0.864000000    -2.150000000
H    -1.818000000     0.550000000    -1.371000000
H    -2.747000000     0.098000000    -2.477000000
