158
-3046.21508
C    -1.048000000    -0.387000000     0.998000000
H    -1.753000000    -0.793000000     1.719000000
C    -0.783000000    -1.081000000    -0.126000000
H    -1.301000000    -2.021000000    -0.298000000
C     0.114000000    -0.587000000    -1.034000000
H     0.403000000    -1.100000000    -1.962000000
C     0.781000000     0.592000000    -0.808000000
H     1.423000000     0.903000000    -1.628000000
C     0.669000000     1.262000000     0.371000000
H     1.200000000     2.203000000     0.490000000
C    -0.252000000     0.770000000     1.312000000
C    -0.393000000     1.459000000     2.715000000
O     0.178000000     2.520000000     2.967000000
O    -0.818000000     0.840000000     3.690000000
O    -4.698000000    -0.452000000     5.815000000
H    -3.910000000    -0.610000000     5.296000000
H    -4.754000000    -1.207000000     6.401000000
O     1.241000000     3.780000000    -2.873000000
H     1.989000000     3.492000000    -2.350000000
H     1.418000000     3.442000000    -3.751000000
O    -1.086000000    -0.274000000     7.621000000
H    -1.076000000     0.497000000     7.054000000
H    -0.210000000    -0.299000000     8.007000000
O    -2.477000000     2.468000000    -5.340000000
H    -1.983000000     2.106000000    -4.604000000
H    -3.313000000     2.001000000    -5.319000000
O     3.626000000    -1.893000000    -1.467000000
H     3.246000000    -1.384000000    -0.750000000
H     3.216000000    -1.538000000    -2.256000000
O     2.913000000    -0.590000000     0.787000000
H     2.152000000    -0.046000000     0.585000000
H     3.440000000    -0.055000000     1.380000000
O     2.577000000     6.163000000     3.853000000
H     2.969000000     6.680000000     3.150000000
H     1.864000000     6.709000000     4.184000000
O     4.183000000     2.693000000     5.506000000
H     4.964000000     3.017000000     5.955000000
H     3.456000000     3.140000000     5.938000000
O     4.815000000     3.362000000    -4.271000000
H     4.347000000     4.163000000    -4.506000000
H     4.292000000     2.976000000    -3.568000000
O    -0.925000000     0.034000000    -5.427000000
H    -1.103000000    -0.139000000    -6.352000000
H    -1.751000000    -0.162000000    -4.984000000
O    -4.280000000    -1.436000000     1.276000000
H    -3.724000000    -0.659000000     1.339000000
H    -3.868000000    -2.073000000     1.861000000
O     1.055000000     6.043000000     0.304000000
H     1.274000000     5.334000000     0.909000000
H     1.803000000     6.090000000    -0.292000000
O    -4.577000000    -0.220000000    -1.724000000
H    -4.893000000    -0.632000000    -0.920000000
H    -4.808000000     0.704000000    -1.626000000
O    -7.043000000    -0.443000000     0.281000000
H    -7.440000000    -0.015000000     1.040000000
H    -6.120000000    -0.536000000     0.515000000
O     0.288000000    -4.399000000    -0.969000000
H     0.611000000    -5.187000000    -1.407000000
H    -0.466000000    -4.699000000    -0.463000000
O    -5.004000000     1.993000000     0.466000000
H    -5.846000000     2.262000000     0.833000000
H    -4.475000000     1.757000000     1.229000000
O     5.525000000     0.523000000    -1.049000000
H     5.788000000     0.556000000    -0.129000000
H     5.176000000    -0.361000000    -1.166000000
O     2.963000000     0.202000000     6.840000000
H     3.683000000     0.619000000     6.367000000
H     2.194000000     0.356000000     6.290000000
O    -6.413000000     0.345000000     3.257000000
H    -6.895000000     1.006000000     3.754000000
H    -5.505000000     0.647000000     3.275000000
O    -1.747000000    -5.662000000     0.718000000
H    -2.305000000    -5.220000000     0.079000000
H    -2.266000000    -6.410000000     1.014000000
O    -3.581000000     1.749000000     2.835000000
H    -3.498000000     2.604000000     3.258000000
H    -3.343000000     1.121000000     3.517000000
O     1.151000000    -5.793000000    -5.863000000
H     1.066000000    -4.892000000    -5.551000000
H     0.269000000    -6.029000000    -6.153000000
O    -2.578000000    -1.069000000     4.355000000
H    -1.787000000    -0.533000000     4.410000000
H    -2.363000000    -1.749000000     3.717000000
O    -0.620000000     2.694000000     8.594000000
H    -0.780000000     2.463000000     7.680000000
H    -0.376000000     1.868000000     9.011000000
O     0.580000000    -1.794000000     4.923000000
H     0.220000000    -0.923000000     4.753000000
H    -0.068000000    -2.216000000     5.486000000
O     1.309000000    -6.413000000    -2.438000000
H     1.921000000    -7.074000000    -2.761000000
H     1.687000000    -5.579000000    -2.718000000
O     1.926000000     2.714000000    -5.345000000
H     1.272000000     2.381000000    -5.960000000
H     2.636000000     2.073000000    -5.381000000
O     3.568000000     1.070000000     2.749000000
H     3.276000000     1.981000000     2.730000000
H     3.638000000     0.860000000     3.681000000
O     5.207000000     3.856000000     0.602000000
H     5.778000000     3.835000000     1.370000000
H     4.326000000     3.958000000     0.961000000
O    -3.825000000    -3.836000000    -0.215000000
H    -3.887000000    -2.915000000     0.039000000
H    -4.570000000    -3.973000000    -0.800000000
O    -1.070000000     4.881000000     2.719000000
H    -0.702000000     3.998000000     2.743000000
H    -0.924000000     5.225000000     3.600000000
O     3.146000000    -4.376000000    -2.834000000
H     3.981000000    -4.794000000    -3.047000000
H     3.386000000    -3.624000000    -2.293000000
O    -2.875000000    -3.375000000     2.756000000
H    -3.507000000    -3.914000000     3.230000000
H    -2.534000000    -3.951000000     2.071000000
O    -3.102000000    -1.015000000    -3.794000000
H    -3.699000000    -1.691000000    -4.113000000
H    -3.543000000    -0.647000000    -3.028000000
O     2.051000000    -2.831000000     2.067000000
H     2.260000000    -2.050000000     1.554000000
H     2.083000000    -2.535000000     2.977000000
O    -1.889000000     1.981000000     5.873000000
H    -1.521000000     1.561000000     5.095000000
H    -2.564000000     2.567000000     5.531000000
O     2.534000000     3.627000000     2.230000000
H     2.676000000     4.305000000     2.891000000
H     1.633000000     3.337000000     2.374000000
O     0.946000000    -3.540000000    -4.771000000
H     1.152000000    -2.688000000    -5.156000000
H     1.561000000    -3.629000000    -4.044000000
O     2.174000000     4.531000000     6.240000000
H     2.326000000     5.107000000     5.491000000
H     2.163000000     5.117000000     6.996000000
O    -1.464000000     2.019000000    -2.935000000
H    -0.748000000     2.633000000    -2.771000000
H    -1.115000000     1.168000000    -2.670000000
O     1.410000000     1.772000000     5.264000000
H     1.342000000     2.639000000     5.666000000
H     0.946000000     1.858000000     4.431000000
O    -1.658000000     5.633000000     0.087000000
H    -0.883000000     6.023000000    -0.318000000
H    -1.475000000     5.655000000     1.026000000
O     3.755000000     2.525000000    -1.685000000
H     4.048000000     1.640000000    -1.468000000
H     4.247000000     3.092000000    -1.092000000
O     1.446000000    -0.805000000    -5.948000000
H     0.598000000    -0.385000000    -5.800000000
H     1.643000000    -0.629000000    -6.868000000
O    -2.032000000    -4.176000000    -3.072000000
H    -2.506000000    -3.431000000    -2.702000000
H    -1.199000000    -3.807000000    -3.367000000
O     3.347000000    -0.606000000    -4.004000000
H     2.637000000    -0.638000000    -4.646000000
H     4.124000000    -0.878000000    -4.492000000
O    -3.429000000     3.885000000     4.870000000
H    -3.881000000     4.291000000     5.610000000
H    -3.407000000     4.568000000     4.200000000
O     2.892000000    -5.005000000     0.392000000
H     2.565000000    -4.890000000    -0.501000000
H     2.591000000    -4.225000000     0.859000000
