158
-3040.30520
C    -0.349000000     0.575000000     1.306000000
H    -0.683000000     0.923000000     2.280000000
C    -0.986000000    -0.471000000     0.700000000
H    -1.806000000    -0.995000000     1.184000000
C    -0.564000000    -0.971000000    -0.566000000
H    -1.124000000    -1.860000000    -1.039000000
C     0.475000000    -0.318000000    -1.198000000
H     0.792000000    -0.812000000    -2.113000000
C     1.043000000     0.796000000    -0.590000000
H     1.898000000     1.271000000    -1.064000000
C     0.738000000     1.250000000     0.675000000
C     1.392000000     2.466000000     1.360000000
O     2.061000000     3.289000000     0.753000000
O     1.159000000     2.635000000     2.513000000
O     1.665000000     5.820000000    -2.888000000
H     1.744000000     6.119000000    -3.794000000
H     1.746000000     4.867000000    -2.943000000
O     3.254000000     0.119000000     2.118000000
H     4.131000000    -0.094000000     2.436000000
H     3.198000000    -0.312000000     1.265000000
O    -0.497000000    -6.277000000     0.058000000
H    -0.458000000    -7.170000000    -0.283000000
H     0.200000000    -5.813000000    -0.405000000
O     5.042000000     6.025000000    -1.339000000
H     4.739000000     6.648000000    -2.000000000
H     4.804000000     5.168000000    -1.691000000
O    -0.062000000     0.368000000    -5.447000000
H    -0.752000000    -0.270000000    -5.266000000
H    -0.224000000     0.648000000    -6.349000000
O    -6.107000000    -0.914000000     2.890000000
H    -5.734000000    -1.735000000     3.209000000
H    -5.772000000    -0.828000000     1.997000000
O    -4.685000000     1.824000000    -1.095000000
H    -4.590000000     2.299000000    -1.920000000
H    -4.058000000     1.104000000    -1.159000000
O    -5.195000000    -0.803000000     0.184000000
H    -5.505000000    -1.687000000    -0.013000000
H    -5.562000000    -0.260000000    -0.513000000
O     0.907000000    -4.509000000    -1.449000000
H     1.366000000    -3.796000000    -1.005000000
H     0.952000000    -4.282000000    -2.377000000
O     0.140000000     4.494000000    -0.443000000
H     0.305000000     4.049000000    -1.274000000
H     0.714000000     4.052000000     0.183000000
O     1.771000000    -2.764000000     0.364000000
H     2.654000000    -2.407000000     0.271000000
H     1.197000000    -2.001000000     0.301000000
O    -4.300000000    -2.977000000     3.334000000
H    -4.107000000    -3.776000000     2.844000000
H    -3.470000000    -2.502000000     3.356000000
O     4.077000000     1.929000000     6.195000000
H     3.608000000     2.358000000     5.479000000
H     4.047000000     2.560000000     6.914000000
O    -2.472000000    -5.415000000     1.810000000
H    -2.916000000    -4.729000000     1.313000000
H    -1.645000000    -5.549000000     1.348000000
O    -4.442000000    -0.671000000    -4.291000000
H    -4.494000000     0.178000000    -3.853000000
H    -5.349000000    -0.975000000    -4.333000000
O    -5.222000000     1.218000000     4.348000000
H    -5.427000000     0.338000000     4.031000000
H    -4.378000000     1.427000000     3.948000000
O     2.008000000    -2.748000000     4.430000000
H     1.793000000    -1.823000000     4.547000000
H     1.209000000    -3.136000000     4.072000000
O    -3.204000000     1.774000000     1.841000000
H    -2.787000000     0.916000000     1.914000000
H    -3.811000000     1.684000000     1.107000000
O     1.017000000     1.252000000     6.982000000
H     0.515000000     1.158000000     6.172000000
H     1.932000000     1.226000000     6.700000000
O     1.503000000    -0.173000000     4.158000000
H     0.880000000     0.542000000     4.289000000
H     2.046000000     0.113000000     3.423000000
O     3.185000000    -1.623000000    -3.156000000
H     3.980000000    -2.121000000    -3.349000000
H     2.513000000    -2.020000000    -3.710000000
O     0.658000000     3.222000000    -2.899000000
H     0.087000000     3.210000000    -3.667000000
H     1.276000000     2.507000000    -3.048000000
O     2.930000000     3.354000000     4.402000000
H     2.527000000     2.868000000     3.682000000
H     3.253000000     4.158000000     3.997000000
O    -3.635000000    -2.610000000    -2.468000000
H    -3.871000000    -1.882000000    -3.042000000
H    -3.412000000    -3.324000000    -3.065000000
O    -1.981000000     4.821000000     1.775000000
H    -2.234000000     3.915000000     1.951000000
H    -1.296000000     4.753000000     1.110000000
O     0.442000000     6.097000000     1.970000000
H     0.088000000     6.976000000     1.839000000
H     0.146000000     5.847000000     2.846000000
O     1.758000000    -1.908000000    -5.497000000
H     1.417000000    -2.657000000    -5.987000000
H     1.354000000    -1.147000000    -5.913000000
O    -1.829000000    -5.120000000    -2.356000000
H    -1.535000000    -5.104000000    -1.445000000
H    -2.689000000    -5.539000000    -2.323000000
O    -0.534000000    -4.037000000    -4.481000000
H    -0.993000000    -3.234000000    -4.727000000
H    -1.043000000    -4.389000000    -3.750000000
O    -2.490000000    -0.899000000     3.954000000
H    -2.666000000    -0.660000000     4.864000000
H    -1.569000000    -1.160000000     3.950000000
O    -1.931000000    -1.460000000    -5.239000000
H    -2.455000000    -1.414000000    -6.039000000
H    -2.549000000    -1.261000000    -4.536000000
O     3.301000000     3.464000000    -4.666000000
H     2.874000000     2.621000000    -4.815000000
H     3.429000000     3.503000000    -3.718000000
O     4.782000000     1.858000000     0.182000000
H     4.114000000     1.916000000     0.864000000
H     5.588000000     1.648000000     0.653000000
O     3.587000000    -4.398000000     1.565000000
H     2.826000000    -3.866000000     1.333000000
H     3.351000000    -5.285000000     1.293000000
O    -0.302000000     2.104000000     4.768000000
H     0.118000000     2.430000000     3.972000000
H    -1.082000000     2.651000000     4.868000000
O     3.079000000     5.280000000     2.257000000
H     2.154000000     5.504000000     2.157000000
H     3.202000000     4.513000000     1.697000000
O    -1.920000000     1.423000000    -1.967000000
H    -1.041000000     1.054000000    -1.875000000
H    -1.834000000     2.325000000    -1.657000000
O    -4.490000000    -5.518000000    -1.928000000
H    -4.785000000    -4.664000000    -1.615000000
H    -4.959000000    -6.149000000    -1.383000000
O     0.902000000     4.717000000     6.099000000
H     1.531000000     4.090000000     5.742000000
H     0.301000000     4.893000000     5.375000000
O     0.338000000     7.316000000    -0.825000000
H     0.275000000     6.922000000     0.045000000
H     0.590000000     6.593000000    -1.399000000
O     3.478000000     3.482000000    -1.886000000
H     3.957000000     2.889000000    -1.307000000
H     2.754000000     3.807000000    -1.351000000
O    -3.292000000    -3.236000000     0.500000000
H    -3.170000000    -3.227000000    -0.449000000
H    -4.009000000    -2.621000000     0.656000000
O     2.277000000     1.052000000    -3.958000000
H     1.658000000     0.823000000    -4.651000000
H     2.559000000     0.209000000    -3.601000000
O    -0.825000000    -3.009000000     2.977000000
H    -1.195000000    -3.777000000     2.540000000
H     0.099000000    -3.013000000     2.728000000
O     6.131000000     0.489000000    -2.567000000
H     5.496000000     0.600000000    -1.859000000
H     6.441000000     1.375000000    -2.752000000
O    -0.914000000     5.092000000     4.235000000
H    -1.557000000     4.650000000     4.790000000
H    -1.316000000     5.105000000     3.367000000
O     6.342000000     3.472000000     3.114000000
H     6.495000000     4.416000000     3.158000000
H     5.429000000     3.365000000     3.383000000
O     3.916000000    -1.432000000    -0.044000000
H     4.604000000    -2.097000000    -0.033000000
H     4.004000000    -1.011000000    -0.899000000
