158
-3018.41731
C    -0.385000000     1.040000000     1.010000000
H    -0.668000000     1.554000000     1.925000000
C    -1.173000000    -0.053000000     0.570000000
H    -2.129000000    -0.272000000     1.038000000
C    -0.746000000    -0.891000000    -0.463000000
H    -1.358000000    -1.708000000    -0.853000000
C     0.417000000    -0.619000000    -1.155000000
H     0.697000000    -1.271000000    -1.979000000
C     1.216000000     0.383000000    -0.658000000
H     2.167000000     0.576000000    -1.148000000
C     0.836000000     1.220000000     0.379000000
C     1.800000000     2.288000000     0.954000000
O     2.903000000     2.573000000     0.489000000
O     1.508000000     2.933000000     1.950000000
O     7.746000000     3.170000000     0.833000000
H     7.136000000     2.795000000     1.468000000
H     8.100000000     2.414000000     0.365000000
O     1.411000000    -5.541000000     0.982000000
H     0.484000000    -5.333000000     1.098000000
H     1.809000000    -4.715000000     0.705000000
O     4.145000000    -0.552000000    -5.231000000
H     3.345000000    -0.027000000    -5.202000000
H     4.372000000    -0.693000000    -4.312000000
O    -4.197000000    -1.910000000     2.997000000
H    -3.469000000    -2.452000000     2.694000000
H    -4.832000000    -2.535000000     3.347000000
O    -4.114000000     3.141000000     0.947000000
H    -5.067000000     3.065000000     0.902000000
H    -3.910000000     3.914000000     0.421000000
O     6.688000000    -0.477000000     1.706000000
H     7.487000000    -0.028000000     1.981000000
H     6.364000000     0.039000000     0.968000000
O    -5.529000000     0.200000000     1.727000000
H    -4.629000000    -0.075000000     1.903000000
H    -5.746000000    -0.214000000     0.891000000
O     0.889000000     5.560000000     0.617000000
H    -0.005000000     5.714000000     0.923000000
H     1.087000000     4.666000000     0.895000000
O     1.698000000    -2.133000000    -4.172000000
H     1.814000000    -2.989000000    -3.759000000
H     2.363000000    -1.579000000    -3.763000000
O     1.125000000    -2.914000000     0.849000000
H     0.773000000    -2.398000000     0.124000000
H     1.721000000    -2.318000000     1.302000000
O    -0.681000000    -2.384000000     5.202000000
H    -0.760000000    -2.742000000     4.317000000
H    -0.607000000    -1.439000000     5.073000000
O    -0.950000000    -3.121000000     2.467000000
H    -1.426000000    -3.806000000     1.998000000
H    -0.152000000    -2.990000000     1.955000000
O    -4.086000000    -0.237000000    -3.582000000
H    -3.359000000     0.045000000    -3.027000000
H    -4.449000000    -1.000000000    -3.132000000
O    -1.865000000    -5.600000000     1.322000000
H    -1.968000000    -5.710000000     0.376000000
H    -2.417000000    -6.282000000     1.704000000
O    -5.230000000     1.608000000    -1.427000000
H    -4.324000000     1.750000000    -1.152000000
H    -5.354000000     0.661000000    -1.361000000
O    -3.928000000    -5.752000000    -2.987000000
H    -3.727000000    -6.677000000    -3.126000000
H    -3.588000000    -5.313000000    -3.767000000
O    -2.488000000     3.480000000     3.513000000
H    -2.826000000     2.640000000     3.823000000
H    -2.778000000     3.533000000     2.602000000
O     0.631000000    -2.297000000    -6.721000000
H     0.991000000    -2.181000000    -5.842000000
H     0.663000000    -1.423000000    -7.110000000
O     1.690000000     6.537000000     5.839000000
H     1.240000000     6.125000000     5.102000000
H     1.027000000     7.098000000     6.241000000
O     0.483000000     0.327000000     5.658000000
H     0.674000000     0.873000000     6.420000000
H     0.529000000     0.928000000     4.914000000
O     4.395000000    -0.820000000    -2.500000000
H     5.242000000    -1.173000000    -2.226000000
H     3.755000000    -1.304000000    -1.979000000
O     1.475000000     0.773000000    -5.178000000
H     0.548000000     0.561000000    -5.287000000
H     1.480000000     1.518000000    -4.577000000
O     2.947000000    -3.638000000    -2.114000000
H     3.844000000    -3.736000000    -2.433000000
H     2.812000000    -4.394000000    -1.543000000
O    -0.060000000    -6.657000000    -2.886000000
H     0.045000000    -6.046000000    -3.615000000
H     0.188000000    -7.508000000    -3.250000000
O     3.659000000     0.781000000     3.279000000
H     3.630000000     1.613000000     2.807000000
H     3.680000000     0.115000000     2.592000000
O    -5.474000000    -1.066000000    -0.981000000
H    -5.074000000    -1.934000000    -0.923000000
H    -6.314000000    -1.218000000    -1.414000000
O     2.611000000     6.465000000     2.884000000
H     2.053000000     6.205000000     2.151000000
H     2.770000000     7.399000000     2.745000000
O    -0.955000000    -4.629000000    -1.314000000
H    -0.079000000    -4.355000000    -1.043000000
H    -0.802000000    -5.259000000    -2.019000000
O    -3.422000000     0.934000000     3.831000000
H    -2.767000000     0.331000000     3.481000000
H    -4.006000000     0.379000000     4.348000000
O    -1.137000000     3.255000000    -3.351000000
H    -0.330000000     3.140000000    -3.852000000
H    -1.714000000     3.747000000    -3.936000000
O    -3.219000000    -4.515000000    -5.367000000
H    -3.999000000    -4.547000000    -5.920000000
H    -2.507000000    -4.294000000    -5.968000000
O    -1.525000000     0.991000000    -4.833000000
H    -2.333000000     0.477000000    -4.828000000
H    -1.547000000     1.479000000    -4.010000000
O     6.882000000     4.757000000    -1.497000000
H     6.948000000     4.386000000    -0.617000000
H     5.949000000     4.711000000    -1.706000000
O     4.774000000     4.430000000     0.555000000
H     4.072000000     3.882000000     0.907000000
H     5.301000000     4.664000000     1.319000000
O     3.726000000    -1.503000000     1.476000000
H     4.576000000    -1.064000000     1.494000000
H     3.894000000    -2.333000000     1.030000000
O     0.075000000     2.838000000     4.239000000
H     0.405000000     2.628000000     3.366000000
H    -0.863000000     2.985000000     4.112000000
O     3.250000000     3.861000000     3.489000000
H     3.054000000     4.792000000     3.391000000
H     2.499000000     3.415000000     3.098000000
O     1.957000000     2.898000000    -3.781000000
H     1.980000000     3.131000000    -2.852000000
H     2.721000000     3.335000000    -4.156000000
O    -6.093000000    -4.940000000     0.124000000
H    -5.453000000    -4.261000000    -0.088000000
H    -6.016000000    -5.573000000    -0.591000000
O    -2.174000000     1.333000000    -1.921000000
H    -1.563000000     1.053000000    -1.239000000
H    -1.756000000     2.097000000    -2.318000000
O     0.722000000     3.265000000     7.029000000
H    -0.017000000     3.491000000     7.594000000
H     0.382000000     3.366000000     6.139000000
O     1.789000000     7.706000000    -0.679000000
H     1.505000000     7.028000000    -0.066000000
H     1.116000000     8.384000000    -0.617000000
O     2.504000000     4.429000000    -1.543000000
H     2.829000000     3.778000000    -0.921000000
H     2.247000000     5.173000000    -0.999000000
O    -3.926000000    -3.624000000    -1.115000000
H    -4.001000000    -4.296000000    -1.792000000
H    -3.012000000    -3.667000000    -0.835000000
O     5.757000000     1.635000000    -2.492000000
H     5.479000000     0.720000000    -2.453000000
H     5.098000000     2.062000000    -3.040000000
O     3.513000000     2.820000000     6.147000000
H     2.649000000     2.993000000     6.519000000
H     3.482000000     3.216000000     5.276000000
O     6.071000000     4.729000000     3.287000000
H     5.487000000     4.138000000     3.762000000
H     5.977000000     5.570000000     3.735000000
O     5.222000000     1.245000000     0.401000000
H     4.279000000     1.404000000     0.371000000
H     5.538000000     1.514000000    -0.462000000
