158
-3007.14660
C     0.585000000    -1.359000000     0.203000000
H     1.100000000    -2.314000000     0.138000000
C     0.046000000    -0.805000000    -0.955000000
H     0.145000000    -1.266000000    -1.934000000
C    -0.551000000     0.400000000    -0.956000000
H    -0.870000000     0.928000000    -1.908000000
C    -0.515000000     1.248000000     0.117000000
H    -0.825000000     2.285000000     0.012000000
C    -0.039000000     0.715000000     1.281000000
H     0.000000000     1.353000000     2.160000000
C     0.436000000    -0.626000000     1.379000000
C     1.024000000    -1.021000000     2.721000000
O     0.828000000    -0.365000000     3.724000000
O     1.725000000    -2.008000000     2.806000000
O     4.741000000    -1.771000000    -3.885000000
H     4.168000000    -2.361000000    -4.374000000
H     4.439000000    -1.839000000    -2.979000000
O     1.062000000     4.643000000    -0.896000000
H     0.594000000     4.439000000    -1.705000000
H     0.992000000     5.594000000    -0.811000000
O    -0.977000000    -6.686000000     2.912000000
H    -0.107000000    -7.018000000     3.136000000
H    -0.817000000    -5.800000000     2.586000000
O    -1.575000000    -4.450000000    -3.313000000
H    -1.446000000    -3.903000000    -2.538000000
H    -1.448000000    -3.853000000    -4.051000000
O     3.044000000     2.247000000    -6.217000000
H     3.063000000     1.322000000    -6.463000000
H     2.258000000     2.335000000    -5.678000000
O    -1.701000000    -0.056000000    -4.304000000
H    -2.648000000     0.005000000    -4.429000000
H    -1.458000000    -0.885000000    -4.717000000
O     2.684000000    -0.105000000    -2.961000000
H     2.996000000    -0.417000000    -2.112000000
H     3.483000000     0.076000000    -3.457000000
O     0.978000000     3.922000000     6.988000000
H     1.485000000     4.207000000     6.228000000
H     0.591000000     3.088000000     6.720000000
O    -4.839000000     2.926000000    -4.049000000
H    -4.148000000     3.134000000    -3.421000000
H    -5.604000000     3.406000000    -3.731000000
O     5.534000000    -4.715000000     3.180000000
H     6.462000000    -4.513000000     3.294000000
H     5.358000000    -5.406000000     3.818000000
O     2.002000000    -3.755000000    -4.893000000
H     1.696000000    -4.211000000    -5.677000000
H     1.458000000    -4.102000000    -4.187000000
O     1.298000000    -3.858000000     4.991000000
H     0.385000000    -3.974000000     5.253000000
H     1.275000000    -3.146000000     4.351000000
O     2.782000000    -5.338000000     6.819000000
H     2.374000000    -5.100000000     7.651000000
H     2.164000000    -5.036000000     6.153000000
O    -2.721000000     2.110000000     5.569000000
H    -1.781000000     1.935000000     5.521000000
H    -2.790000000     2.902000000     6.103000000
O     1.806000000     4.150000000     4.369000000
H     2.751000000     4.080000000     4.238000000
H     1.475000000     4.505000000     3.544000000
O     4.202000000     0.057000000     3.723000000
H     3.641000000    -0.611000000     3.330000000
H     3.829000000     0.202000000     4.593000000
O     0.173000000    -5.003000000    -0.427000000
H    -0.120000000    -5.899000000    -0.596000000
H     0.881000000    -4.861000000    -1.055000000
O    -2.730000000     3.930000000    -2.601000000
H    -2.772000000     3.482000000    -1.756000000
H    -1.796000000     4.080000000    -2.747000000
O     2.376000000    -5.118000000    -2.289000000
H     2.960000000    -4.383000000    -2.105000000
H     2.800000000    -5.870000000    -1.875000000
O     2.600000000    -0.855000000     5.779000000
H     2.096000000    -0.821000000     4.966000000
H     2.736000000     0.063000000     6.014000000
O     0.403000000    -4.525000000     2.203000000
H     1.064000000    -3.865000000     2.411000000
H     0.382000000    -4.550000000     1.247000000
O    -4.778000000    -1.983000000    -1.637000000
H    -5.285000000    -1.958000000    -0.826000000
H    -3.865000000    -1.964000000    -1.351000000
O     0.183000000     1.888000000     5.139000000
H     0.249000000     1.153000000     4.529000000
H     0.845000000     2.509000000     4.837000000
O    -1.606000000    -4.414000000     5.009000000
H    -2.019000000    -4.317000000     5.867000000
H    -1.493000000    -5.359000000     4.903000000
O    -0.238000000     0.838000000    -6.922000000
H    -0.144000000     1.132000000    -6.016000000
H    -1.058000000     1.235000000    -7.218000000
O     0.741000000     1.187000000    -4.324000000
H    -0.088000000     0.713000000    -4.255000000
H     1.329000000     0.729000000    -3.723000000
O    -3.918000000     2.455000000     1.205000000
H    -4.027000000     1.739000000     0.579000000
H    -4.760000000     2.509000000     1.657000000
O    -2.296000000     4.643000000     1.107000000
H    -2.598000000     3.761000000     1.325000000
H    -2.954000000     4.978000000     0.497000000
O     3.324000000     1.758000000     6.254000000
H     3.832000000     2.553000000     6.093000000
H     3.449000000     1.579000000     7.186000000
O     4.294000000     3.891000000    -1.741000000
H     3.455000000     3.579000000    -1.402000000
H     4.130000000     4.802000000    -1.984000000
O     1.773000000    -6.983000000     3.222000000
H     2.527000000    -7.193000000     2.672000000
H     1.514000000    -6.103000000     2.949000000
O    -0.171000000     3.701000000    -3.206000000
H     0.197000000     3.962000000    -4.050000000
H     0.300000000     2.899000000    -2.978000000
O    -1.059000000    -1.495000000     5.621000000
H    -0.358000000    -1.211000000     5.035000000
H    -1.427000000    -2.270000000     5.197000000
O    -1.220000000    -2.925000000    -5.520000000
H    -0.941000000    -3.017000000    -6.431000000
H    -2.135000000    -3.205000000    -5.520000000
O     3.508000000    -3.486000000     1.778000000
H     2.973000000    -2.903000000     2.316000000
H     4.239000000    -3.731000000     2.345000000
O    -0.881000000     5.623000000     3.230000000
H    -0.140000000     5.659000000     2.625000000
H    -1.578000000     5.198000000     2.730000000
O     0.667000000     0.605000000     7.956000000
H     0.264000000     0.057000000     7.283000000
H     1.608000000     0.518000000     7.804000000
O     6.381000000     0.151000000     1.780000000
H     6.587000000    -0.667000000     1.327000000
H     5.838000000    -0.116000000     2.522000000
O    -2.093000000    -2.876000000    -0.929000000
H    -1.872000000    -3.512000000    -0.249000000
H    -1.317000000    -2.320000000    -0.998000000
O    -5.356000000     0.222000000     0.157000000
H    -6.068000000     0.733000000     0.543000000
H    -5.667000000     0.005000000    -0.722000000
O    -3.775000000     0.069000000     3.223000000
H    -3.075000000     0.572000000     2.808000000
H    -4.031000000     0.596000000     3.981000000
O     0.257000000     4.409000000    -5.687000000
H     0.448000000     5.347000000    -5.715000000
H    -0.008000000     4.193000000    -6.581000000
O    -6.374000000     0.068000000    -4.422000000
H    -7.304000000     0.167000000    -4.217000000
H    -6.070000000     0.959000000    -4.595000000
O    -3.936000000     5.636000000    -0.580000000
H    -4.016000000     5.307000000    -1.475000000
H    -4.385000000     6.481000000    -0.593000000
O     3.748000000    -2.831000000    -1.032000000
H     3.425000000    -3.167000000    -0.196000000
H     4.695000000    -2.759000000    -0.911000000
O     2.037000000     5.173000000     1.720000000
H     1.876000000     4.877000000     0.824000000
H     2.958000000     5.432000000     1.724000000
O    -2.508000000     5.211000000    -5.388000000
H    -2.092000000     5.350000000    -6.238000000
H    -1.923000000     4.606000000    -4.931000000
O     4.386000000    -2.864000000     6.248000000
H     3.618000000    -2.373000000     5.956000000
H     4.101000000    -3.778000000     6.245000000
