158
-3013.38338
C     0.066000000    -1.229000000     0.750000000
H    -0.062000000    -2.211000000     1.199000000
C    -0.156000000    -1.222000000    -0.666000000
H    -0.400000000    -2.190000000    -1.095000000
C    -0.155000000     0.030000000    -1.208000000
H    -0.484000000     0.149000000    -2.213000000
C     0.082000000     1.186000000    -0.440000000
H     0.094000000     2.155000000    -0.931000000
C     0.285000000     1.152000000     0.891000000
H     0.616000000     2.011000000     1.468000000
C     0.309000000    -0.102000000     1.517000000
C     0.418000000    -0.179000000     3.031000000
O     0.441000000     0.863000000     3.635000000
O     0.574000000    -1.279000000     3.596000000
O    -1.929000000     2.221000000     7.355000000
H    -1.636000000     3.062000000     7.005000000
H    -1.224000000     1.612000000     7.135000000
O     3.990000000     3.670000000     0.762000000
H     4.784000000     3.917000000     0.288000000
H     3.303000000     3.675000000     0.096000000
O    -0.076000000    -0.503000000    -4.758000000
H     0.154000000    -0.500000000    -3.829000000
H     0.766000000    -0.511000000    -5.214000000
O     4.759000000     1.193000000     2.461000000
H     4.512000000     1.720000000     1.701000000
H     4.183000000     1.498000000     3.161000000
O    -4.494000000    -1.660000000     1.804000000
H    -3.594000000    -1.980000000     1.754000000
H    -4.456000000    -0.932000000     2.424000000
O     1.097000000    -6.193000000     1.898000000
H     1.072000000    -5.574000000     2.628000000
H     1.863000000    -5.930000000     1.388000000
O    -0.147000000    -4.863000000     6.497000000
H     0.189000000    -5.687000000     6.850000000
H     0.041000000    -4.216000000     7.177000000
O     2.838000000     1.974000000     4.359000000
H     2.022000000     1.575000000     4.059000000
H     2.606000000     2.403000000     5.183000000
O     1.841000000    -1.306000000     5.828000000
H     1.379000000    -1.050000000     5.029000000
H     2.765000000    -1.314000000     5.578000000
O     1.013000000    -2.894000000     7.792000000
H     1.337000000    -2.471000000     6.997000000
H     0.995000000    -2.195000000     8.445000000
O    -1.310000000    -4.082000000    -3.914000000
H    -1.097000000    -3.529000000    -4.665000000
H    -2.128000000    -3.720000000    -3.574000000
O     2.617000000     4.102000000    -1.637000000
H     2.817000000     3.281000000    -2.087000000
H     2.954000000     4.783000000    -2.220000000
O     2.347000000    -0.723000000    -6.047000000
H     2.434000000    -0.033000000    -6.704000000
H     3.077000000    -1.317000000    -6.226000000
O    -3.124000000     5.128000000    -5.779000000
H    -2.669000000     5.738000000    -6.360000000
H    -2.422000000     4.656000000    -5.330000000
O    -5.173000000    -4.373000000     1.297000000
H    -5.421000000    -3.526000000     1.668000000
H    -4.217000000    -4.341000000     1.248000000
O    -1.946000000    -2.533000000     3.152000000
H    -2.329000000    -2.339000000     4.007000000
H    -1.027000000    -2.279000000     3.239000000
O     3.924000000    -0.588000000    -1.222000000
H     3.256000000     0.097000000    -1.227000000
H     4.352000000    -0.512000000    -2.075000000
O     4.833000000    -0.268000000    -3.847000000
H     5.309000000     0.410000000    -4.327000000
H     5.194000000    -1.092000000    -4.175000000
O    -0.606000000     0.210000000     6.125000000
H    -0.054000000     0.748000000     5.557000000
H    -0.009000000    -0.439000000     6.496000000
O    -3.391000000     4.377000000     2.894000000
H    -2.653000000     3.773000000     2.963000000
H    -3.649000000     4.546000000     3.800000000
O    -2.714000000     1.300000000    -5.686000000
H    -2.780000000     1.838000000    -4.897000000
H    -1.921000000     1.612000000    -6.122000000
O    -2.502000000    -3.954000000     1.004000000
H    -2.314000000    -3.617000000     1.880000000
H    -2.238000000    -4.873000000     1.039000000
O    -2.602000000     3.233000000    -3.580000000
H    -1.901000000     3.530000000    -3.000000000
H    -3.391000000     3.651000000    -3.235000000
O    -3.324000000    -1.619000000    -5.625000000
H    -2.731000000    -2.190000000    -6.113000000
H    -2.843000000    -0.797000000    -5.532000000
O     1.112000000    -3.271000000    -6.809000000
H     1.679000000    -3.209000000    -7.578000000
H     1.087000000    -2.380000000    -6.458000000
O    -3.380000000     0.108000000    -2.074000000
H    -2.726000000     0.699000000    -2.449000000
H    -3.240000000     0.165000000    -1.129000000
O    -0.325000000     6.325000000     2.344000000
H     0.165000000     5.685000000     2.860000000
H    -0.028000000     6.185000000     1.445000000
O     1.905000000     2.596000000     7.219000000
H     1.801000000     3.509000000     6.951000000
H     1.076000000     2.375000000     7.644000000
O     0.115000000    -5.840000000    -2.441000000
H     0.930000000    -5.381000000    -2.645000000
H    -0.575000000    -5.243000000    -2.731000000
O     3.142000000     1.786000000    -3.228000000
H     2.547000000     2.278000000    -3.794000000
H     3.091000000     0.887000000    -3.551000000
O    -1.054000000     4.373000000     5.821000000
H    -1.710000000     5.069000000     5.819000000
H    -0.220000000     4.829000000     5.938000000
O    -3.057000000     0.532000000     3.387000000
H    -2.754000000     1.420000000     3.576000000
H    -2.597000000    -0.018000000     4.022000000
O     2.558000000    -4.563000000    -3.030000000
H     3.181000000    -4.489000000    -3.753000000
H     3.105000000    -4.603000000    -2.246000000
O     2.458000000     4.819000000     3.015000000
H     2.887000000     4.390000000     3.755000000
H     2.913000000     4.480000000     2.245000000
O     4.430000000    -1.133000000     4.311000000
H     4.309000000    -0.552000000     3.560000000
H     5.139000000    -0.730000000     4.813000000
O    -3.307000000    -3.704000000    -1.577000000
H    -3.975000000    -3.031000000    -1.450000000
H    -2.989000000    -3.896000000    -0.695000000
O    -2.781000000     0.605000000     0.735000000
H    -2.752000000     0.481000000     1.684000000
H    -1.888000000     0.424000000     0.443000000
O    -2.666000000    -1.599000000     5.480000000
H    -2.302000000    -0.789000000     5.836000000
H    -3.186000000    -1.963000000     6.198000000
O    -4.895000000    -1.798000000    -3.392000000
H    -4.463000000    -1.700000000    -4.240000000
H    -4.345000000    -1.302000000    -2.785000000
O     0.990000000     3.211000000    -4.155000000
H     0.193000000     3.296000000    -3.632000000
H     1.300000000     4.110000000    -4.267000000
O    -1.521000000     2.744000000     3.683000000
H    -1.208000000     3.294000000     4.402000000
H    -0.783000000     2.168000000     3.484000000
O     1.664000000    -3.827000000     3.374000000
H     1.496000000    -2.892000000     3.491000000
H     1.264000000    -4.240000000     4.139000000
O     0.799000000     5.607000000    -0.152000000
H     1.566000000     6.142000000     0.050000000
H     1.150000000     4.851000000    -0.622000000
O    -1.960000000    -5.750000000     4.411000000
H    -1.400000000    -5.044000000     4.734000000
H    -2.385000000    -6.097000000     5.196000000
O     4.555000000    -3.618000000     3.434000000
H     4.511000000    -2.763000000     3.861000000
H     3.642000000    -3.845000000     3.257000000
O    -6.172000000     1.881000000    -4.032000000
H    -5.279000000     1.535000000    -4.043000000
H    -6.698000000     1.197000000    -4.445000000
O     0.012000000     1.808000000    -6.225000000
H     0.558000000     2.366000000    -5.672000000
H    -0.153000000     1.030000000    -5.692000000
O    -0.810000000     4.844000000    -2.450000000
H    -0.450000000     5.155000000    -1.619000000
H    -0.516000000     5.488000000    -3.094000000
