158
-3042.79465
C     0.359000000    -1.149000000     0.887000000
H     0.573000000    -2.041000000     1.470000000
C    -0.367000000    -1.191000000    -0.320000000
H    -0.764000000    -2.110000000    -0.743000000
C    -0.511000000    -0.015000000    -1.133000000
H    -0.970000000     0.026000000    -2.112000000
C    -0.012000000     1.195000000    -0.672000000
H    -0.176000000     2.121000000    -1.217000000
C     0.454000000     1.221000000     0.661000000
H     0.690000000     2.196000000     1.078000000
C     0.722000000     0.036000000     1.417000000
C     1.461000000     0.149000000     2.756000000
O     1.325000000     1.253000000     3.407000000
O     1.833000000    -0.878000000     3.344000000
O    -1.288000000    -3.964000000     2.392000000
H    -1.684000000    -4.062000000     1.526000000
H    -1.844000000    -4.485000000     2.970000000
O    -4.186000000    -5.678000000    -3.118000000
H    -3.847000000    -4.805000000    -3.314000000
H    -4.565000000    -5.979000000    -3.944000000
O     4.173000000    -2.226000000     0.837000000
H     3.998000000    -2.044000000     1.760000000
H     5.100000000    -2.016000000     0.723000000
O     3.717000000     4.859000000     2.843000000
H     3.200000000     5.443000000     2.288000000
H     4.543000000     5.323000000     2.975000000
O    -2.851000000    -1.657000000    -5.455000000
H    -3.425000000    -1.743000000    -6.215000000
H    -3.393000000    -1.924000000    -4.713000000
O     3.618000000     2.433000000     4.238000000
H     2.825000000     1.991000000     3.936000000
H     3.594000000     3.288000000     3.809000000
O     4.194000000     2.957000000    -1.333000000
H     4.368000000     3.679000000    -1.936000000
H     3.339000000     2.620000000    -1.604000000
O    -5.667000000    -1.567000000    -0.264000000
H    -4.924000000    -2.139000000    -0.457000000
H    -5.349000000    -0.686000000    -0.466000000
O     0.917000000    -0.533000000    -5.212000000
H     1.050000000    -1.201000000    -4.539000000
H     1.793000000    -0.192000000    -5.388000000
O     1.905000000    -5.631000000    -0.248000000
H     1.878000000    -5.173000000     0.592000000
H     2.812000000    -5.540000000    -0.541000000
O     0.339000000     0.729000000     5.843000000
H     0.670000000     0.878000000     4.958000000
H    -0.612000000     0.697000000     5.741000000
O     0.303000000    -2.190000000     5.636000000
H     0.580000000    -1.944000000     4.753000000
H     0.504000000    -1.423000000     6.172000000
O     3.042000000    -3.452000000     7.290000000
H     2.574000000    -3.938000000     7.969000000
H     2.720000000    -3.820000000     6.468000000
O     3.422000000     5.719000000    -0.403000000
H     3.831000000     4.856000000    -0.472000000
H     4.142000000     6.307000000    -0.173000000
O     4.110000000    -2.097000000    -2.916000000
H     3.471000000    -1.652000000    -2.359000000
H     4.910000000    -1.580000000    -2.823000000
O    -3.075000000    -3.036000000    -2.699000000
H    -3.627000000    -2.260000000    -2.797000000
H    -3.339000000    -3.413000000    -1.860000000
O     1.576000000     4.462000000    -4.136000000
H     1.651000000     5.322000000    -4.551000000
H     0.844000000     4.554000000    -3.526000000
O    -0.255000000    -0.722000000    -7.931000000
H     0.103000000    -0.778000000    -7.045000000
H    -0.266000000    -1.627000000    -8.242000000
O    -3.613000000     5.490000000    -4.485000000
H    -3.026000000     5.497000000    -5.242000000
H    -3.545000000     4.601000000    -4.137000000
O    -3.651000000    -1.648000000     2.011000000
H    -3.764000000    -0.702000000     2.111000000
H    -3.032000000    -1.889000000     2.700000000
O     4.342000000    -4.558000000    -0.517000000
H     4.241000000    -3.731000000    -0.045000000
H     5.004000000    -5.038000000    -0.020000000
O     2.743000000    -0.367000000    -1.102000000
H     1.866000000    -0.049000000    -0.892000000
H     3.093000000    -0.678000000    -0.267000000
O    -2.314000000    -1.600000000     4.410000000
H    -1.489000000    -1.646000000     4.894000000
H    -2.372000000    -0.690000000     4.121000000
O    -1.801000000     4.651000000     1.697000000
H    -1.195000000     4.757000000     0.964000000
H    -1.273000000     4.253000000     2.389000000
O     1.451000000     0.907000000     8.406000000
H     2.198000000     1.490000000     8.545000000
H     1.265000000     0.975000000     7.470000000
O    -2.456000000     3.020000000    -3.507000000
H    -2.896000000     2.635000000    -2.749000000
H    -2.039000000     2.278000000    -3.945000000
O    -3.597000000    -3.368000000    -0.092000000
H    -3.392000000    -2.776000000     0.631000000
H    -3.441000000    -4.243000000     0.262000000
O    -4.043000000     2.397000000    -1.300000000
H    -3.964000000     1.974000000    -0.445000000
H    -4.600000000     3.159000000    -1.140000000
O    -5.902000000     1.304000000    -3.366000000
H    -5.219000000     1.620000000    -2.774000000
H    -5.719000000     1.740000000    -4.198000000
O    -2.731000000    -4.421000000     4.818000000
H    -2.439000000    -4.339000000     5.726000000
H    -2.484000000    -3.591000000     4.410000000
O     5.660000000     0.588000000     3.913000000
H     6.482000000     1.078000000     3.901000000
H     4.998000000     1.238000000     4.148000000
O     0.188000000    -6.719000000    -1.911000000
H    -0.164000000    -5.985000000    -2.415000000
H     0.835000000    -6.322000000    -1.329000000
O    -0.644000000    -4.406000000    -3.448000000
H     0.071000000    -3.783000000    -3.577000000
H    -1.414000000    -3.858000000    -3.295000000
O    -1.948000000     2.960000000    -6.764000000
H    -1.647000000     2.237000000    -6.214000000
H    -1.227000000     3.590000000    -6.746000000
O    -0.634000000     5.028000000    -2.241000000
H    -1.242000000     5.745000000    -2.064000000
H    -1.153000000     4.388000000    -2.728000000
O     1.611000000    -2.745000000    -3.811000000
H     1.812000000    -3.072000000    -4.688000000
H     2.465000000    -2.652000000    -3.388000000
O     4.594000000     3.359000000     6.717000000
H     4.240000000     3.026000000     5.892000000
H     4.410000000     4.298000000     6.696000000
O     4.014000000    -1.363000000     4.652000000
H     3.205000000    -1.052000000     4.247000000
H     4.692000000    -0.779000000     4.314000000
O    -2.178000000     0.978000000     3.245000000
H    -1.545000000     1.678000000     3.403000000
H    -2.184000000     0.871000000     2.294000000
O    -4.978000000    -1.235000000    -3.442000000
H    -5.715000000    -1.634000000    -3.903000000
H    -5.283000000    -0.356000000    -3.219000000
O    -3.081000000     3.153000000     5.237000000
H    -2.195000000     3.310000000     4.909000000
H    -3.044000000     2.275000000     5.615000000
O    -0.245000000     3.287000000     3.574000000
H     0.365000000     3.966000000     3.864000000
H     0.317000000     2.591000000     3.234000000
O     1.641000000    -4.201000000     2.497000000
H     1.933000000    -3.645000000     3.218000000
H     0.795000000    -3.834000000     2.238000000
O     0.607000000     4.928000000     0.273000000
H     0.268000000     4.815000000    -0.615000000
H     1.453000000     5.359000000     0.154000000
O     4.720000000    -4.207000000     4.182000000
H     4.587000000    -3.279000000     4.374000000
H     4.020000000    -4.653000000     4.659000000
O     5.044000000    -1.633000000     7.330000000
H     4.901000000    -1.351000000     6.427000000
H     4.355000000    -2.277000000     7.492000000
O     6.398000000     1.564000000     1.128000000
H     5.833000000     1.394000000     0.374000000
H     5.954000000     1.138000000     1.861000000
O    -1.621000000     0.678000000    -4.727000000
H    -2.298000000     0.002000000    -4.743000000
H    -0.827000000     0.230000000    -5.017000000
