158
-3044.68806
C     0.490000000    -1.032000000     0.935000000
H     0.712000000    -1.858000000     1.606000000
C    -0.096000000    -1.231000000    -0.323000000
H    -0.314000000    -2.239000000    -0.667000000
C    -0.513000000    -0.118000000    -1.057000000
H    -1.096000000    -0.286000000    -1.905000000
C    -0.376000000     1.166000000    -0.663000000
H    -0.642000000     2.086000000    -1.177000000
C     0.197000000     1.370000000     0.610000000
H     0.271000000     2.359000000     1.055000000
C     0.673000000     0.271000000     1.327000000
C     1.241000000     0.367000000     2.726000000
O     1.027000000     1.357000000     3.365000000
O     1.942000000    -0.508000000     3.200000000
O     3.749000000    -1.967000000     1.605000000
H     3.428000000    -1.329000000     2.243000000
H     3.755000000    -1.491000000     0.774000000
O    -2.233000000    -1.364000000     6.351000000
H    -1.359000000    -1.173000000     6.012000000
H    -2.078000000    -1.911000000     7.121000000
O     4.452000000     2.368000000     1.984000000
H     4.458000000     3.315000000     2.118000000
H     4.555000000     2.259000000     1.039000000
O     3.804000000     1.210000000     4.382000000
H     3.033000000     0.665000000     4.225000000
H     3.848000000     1.788000000     3.620000000
O    -4.938000000     1.747000000    -4.042000000
H    -4.884000000     0.967000000    -3.490000000
H    -5.372000000     1.446000000    -4.841000000
O    -1.826000000    -3.573000000     2.208000000
H    -1.005000000    -3.876000000     1.819000000
H    -2.326000000    -4.374000000     2.365000000
O    -1.579000000     1.486000000     3.814000000
H    -0.636000000     1.355000000     3.711000000
H    -1.964000000     0.640000000     3.586000000
O     3.221000000    -3.623000000     7.236000000
H     4.030000000    -3.276000000     7.611000000
H     3.276000000    -3.406000000     6.306000000
O    -2.785000000    -4.853000000    -5.156000000
H    -2.592000000    -5.356000000    -4.365000000
H    -2.301000000    -4.034000000    -5.043000000
O    -1.576000000    -2.078000000    -7.621000000
H    -0.857000000    -1.557000000    -7.979000000
H    -1.762000000    -1.678000000    -6.772000000
O     2.569000000    -0.823000000    -5.663000000
H     3.436000000    -0.976000000    -6.039000000
H     2.097000000    -0.338000000    -6.340000000
O     2.016000000    -3.872000000    -0.956000000
H     1.928000000    -3.418000000    -1.794000000
H     2.960000000    -3.949000000    -0.823000000
O     0.141000000    -6.001000000    -3.328000000
H     0.027000000    -5.159000000    -2.886000000
H     0.439000000    -5.771000000    -4.208000000
O    -3.778000000    -0.889000000     0.273000000
H    -3.303000000    -0.844000000     1.103000000
H    -3.961000000    -1.821000000     0.151000000
O     1.185000000     5.519000000    -0.750000000
H     1.178000000     6.165000000    -0.044000000
H     0.265000000     5.284000000    -0.869000000
O     0.468000000    -1.514000000     5.422000000
H     0.311000000    -2.401000000     5.098000000
H     1.094000000    -1.140000000     4.802000000
O     3.304000000    -2.517000000     4.421000000
H     2.782000000    -1.795000000     4.072000000
H     3.838000000    -2.806000000     3.682000000
O     1.747000000    -2.868000000    -3.524000000
H     1.992000000    -2.013000000    -3.877000000
H     2.212000000    -3.497000000    -4.076000000
O     0.218000000    -4.964000000     0.706000000
H     1.013000000    -4.609000000     0.308000000
H     0.449000000    -5.863000000     0.941000000
O     2.859000000     1.816000000    -0.360000000
H     2.002000000     1.544000000    -0.031000000
H     3.269000000     1.004000000    -0.659000000
O     2.964000000     0.209000000    -3.149000000
H     2.782000000    -0.074000000    -4.045000000
H     2.414000000     0.982000000    -3.026000000
O    -5.202000000    -3.846000000    -3.755000000
H    -5.412000000    -3.483000000    -2.895000000
H    -4.288000000    -3.600000000    -3.902000000
O    -0.741000000     5.483000000     3.187000000
H    -0.481000000     6.360000000     2.904000000
H    -0.017000000     4.920000000     2.915000000
O    -2.955000000     3.799000000     3.019000000
H    -2.412000000     4.580000000     2.915000000
H    -2.355000000     3.132000000     3.351000000
O     0.916000000    -3.979000000     3.938000000
H     1.847000000    -3.816000000     4.085000000
H     0.878000000    -4.389000000     3.074000000
O     0.804000000    -4.883000000    -5.708000000
H     1.122000000    -4.651000000    -6.580000000
H     0.087000000    -4.271000000    -5.544000000
O    -1.888000000     5.555000000    -0.335000000
H    -2.364000000     6.281000000     0.069000000
H    -1.944000000     4.846000000     0.306000000
O    -0.971000000    -2.901000000    -4.535000000
H    -0.122000000    -2.853000000    -4.095000000
H    -1.261000000    -1.991000000    -4.598000000
O    -3.342000000     1.945000000    -0.308000000
H    -2.429000000     1.853000000    -0.579000000
H    -3.559000000     1.104000000     0.095000000
O     1.340000000    -0.828000000     8.117000000
H     1.331000000    -1.140000000     7.213000000
H     1.102000000    -1.595000000     8.638000000
O     6.569000000     0.533000000     2.601000000
H     5.763000000     1.021000000     2.433000000
H     6.462000000     0.191000000     3.488000000
O    -2.437000000    -0.535000000    -5.029000000
H    -1.845000000     0.200000000    -4.870000000
H    -3.018000000    -0.544000000    -4.269000000
O     1.801000000     2.943000000    -2.999000000
H     1.983000000     3.872000000    -3.142000000
H     2.115000000     2.772000000    -2.111000000
O    -0.013000000     1.430000000    -4.569000000
H     0.664000000     1.754000000    -3.976000000
H    -0.652000000     2.141000000    -4.615000000
O     6.124000000    -0.243000000     5.432000000
H     5.502000000     0.371000000     5.042000000
H     5.811000000    -0.364000000     6.329000000
O    -0.208000000     5.787000000    -4.296000000
H    -0.685000000     4.958000000    -4.341000000
H    -0.357000000     6.195000000    -5.149000000
O     3.998000000    -0.492000000    -0.743000000
H     4.899000000    -0.457000000    -1.062000000
H     3.461000000    -0.429000000    -1.533000000
O     0.034000000     2.964000000     5.980000000
H     0.550000000     2.821000000     5.187000000
H     0.470000000     3.693000000     6.421000000
O    -2.437000000     2.054000000     6.985000000
H    -2.264000000     1.203000000     7.389000000
H    -1.587000000     2.338000000     6.651000000
O     1.445000000     3.978000000     3.150000000
H     2.402000000     3.998000000     3.139000000
H     1.226000000     3.056000000     3.285000000
O    -4.450000000    -0.474000000    -2.539000000
H    -3.975000000    -0.566000000    -1.713000000
H    -5.022000000    -1.240000000    -2.572000000
O     1.342000000     1.411000000    -6.893000000
H     0.896000000     1.547000000    -6.057000000
H     1.656000000     2.280000000    -7.140000000
O    -5.032000000     3.714000000    -1.648000000
H    -4.335000000     3.557000000    -1.010000000
H    -4.823000000     3.133000000    -2.379000000
O     0.372000000     1.923000000     8.627000000
H     0.266000000     2.163000000     7.706000000
H     0.685000000     1.019000000     8.604000000
O     4.810000000     3.863000000    -0.803000000
H     3.946000000     3.460000000    -0.710000000
H     4.640000000     4.804000000    -0.769000000
O    -2.637000000    -0.962000000     2.802000000
H    -2.081000000    -1.661000000     2.459000000
H    -2.984000000    -1.312000000     3.623000000
O    -2.051000000     3.509000000    -4.169000000
H    -2.654000000     2.921000000    -3.713000000
H    -2.574000000     3.888000000    -4.875000000
O     3.962000000     0.403000000     7.016000000
H     3.629000000     0.899000000     6.268000000
H     3.298000000    -0.269000000     7.173000000
