158
-3032.05297
C    -1.172000000     0.805000000     0.345000000
H    -2.066000000     1.371000000     0.597000000
C    -1.152000000    -0.583000000     0.432000000
H    -1.950000000    -1.159000000     0.894000000
C     0.018000000    -1.278000000     0.083000000
H    -0.064000000    -2.392000000     0.091000000
C     0.966000000    -0.560000000    -0.553000000
H     1.863000000    -1.100000000    -0.844000000
C     0.923000000     0.878000000    -0.745000000
H     1.718000000     1.351000000    -1.314000000
C    -0.110000000     1.574000000    -0.230000000
C    -0.183000000     3.074000000    -0.269000000
O     0.797000000     3.664000000    -0.672000000
O    -1.094000000     3.745000000     0.132000000
O    -2.022000000    -1.297000000    -4.028000000
H    -2.052000000    -0.588000000    -3.384000000
H    -2.065000000    -0.853000000    -4.875000000
O     0.158000000     8.260000000    -2.832000000
H    -0.331000000     8.930000000    -2.354000000
H    -0.335000000     7.453000000    -2.686000000
O     1.611000000    -0.410000000     5.055000000
H     1.053000000    -1.184000000     5.136000000
H     2.132000000    -0.572000000     4.269000000
O     0.249000000    -2.561000000    -3.049000000
H     0.853000000    -1.838000000    -2.883000000
H    -0.463000000    -2.167000000    -3.553000000
O    -2.198000000    -3.655000000    -1.698000000
H    -1.600000000    -2.965000000    -1.982000000
H    -3.067000000    -3.256000000    -1.752000000
O     3.656000000     3.519000000    -0.406000000
H     2.700000000     3.479000000    -0.425000000
H     3.876000000     3.551000000     0.525000000
O    -3.354000000     0.698000000     5.682000000
H    -3.830000000     0.866000000     4.869000000
H    -4.024000000     0.735000000     6.364000000
O     2.142000000    -6.112000000     3.043000000
H     1.201000000    -5.935000000     3.060000000
H     2.368000000    -6.117000000     2.112000000
O     3.495000000     6.039000000    -1.975000000
H     2.887000000     5.836000000    -2.686000000
H     3.636000000     5.202000000    -1.533000000
O     0.844000000     5.514000000     1.371000000
H     0.449000000     4.989000000     0.675000000
H     1.492000000     4.933000000     1.771000000
O    -4.867000000    -2.527000000     0.098000000
H    -4.752000000    -2.158000000     0.973000000
H    -4.554000000    -1.843000000    -0.494000000
O     0.099000000    -6.484000000    -3.108000000
H    -0.806000000    -6.225000000    -2.935000000
H     0.625000000    -5.769000000    -2.749000000
O     3.490000000     3.637000000     2.553000000
H     3.403000000     3.267000000     3.432000000
H     3.874000000     4.502000000     2.694000000
O    -3.507000000    -4.770000000     3.772000000
H    -2.875000000    -4.220000000     3.309000000
H    -2.972000000    -5.433000000     4.209000000
O    -0.706000000    -5.705000000    -0.369000000
H    -1.410000000    -5.305000000    -0.880000000
H     0.067000000    -5.179000000    -0.574000000
O    -4.361000000    -1.174000000     2.491000000
H    -4.893000000    -1.490000000     3.221000000
H    -4.175000000    -0.260000000     2.708000000
O     3.911000000    -3.752000000    -3.969000000
H     3.969000000    -2.798000000    -4.020000000
H     4.433000000    -3.983000000    -3.200000000
O     0.743000000     4.422000000     4.792000000
H     0.791000000     3.915000000     3.981000000
H     0.083000000     3.970000000     5.318000000
O     2.427000000    -0.581000000    -4.593000000
H     3.291000000    -0.748000000    -4.217000000
H     2.380000000    -1.162000000    -5.353000000
O    -4.014000000     1.591000000     3.082000000
H    -4.570000000     2.043000000     2.447000000
H    -3.136000000     1.935000000     2.920000000
O     4.738000000    -0.986000000    -3.418000000
H     5.268000000    -1.241000000    -2.663000000
H     5.208000000    -1.343000000    -4.172000000
O    -0.403000000    -8.579000000    -0.417000000
H    -1.025000000    -8.854000000    -1.090000000
H    -0.544000000    -7.636000000    -0.331000000
O    -0.934000000    -2.220000000     5.726000000
H    -1.815000000    -2.559000000     5.886000000
H    -0.351000000    -2.903000000     6.057000000
O     1.526000000    -2.668000000     2.890000000
H     2.185000000    -2.429000000     2.239000000
H     1.997000000    -3.217000000     3.517000000
O    -2.859000000     3.467000000    -1.942000000
H    -2.283000000     3.653000000    -1.200000000
H    -3.442000000     4.225000000    -1.989000000
O    -4.296000000    -0.219000000    -1.260000000
H    -3.868000000     0.347000000    -1.903000000
H    -5.137000000     0.206000000    -1.090000000
O     0.284000000     1.414000000     3.192000000
H     0.624000000     0.834000000     3.873000000
H     0.774000000     1.174000000     2.406000000
O     4.872000000     2.595000000    -2.792000000
H     4.274000000     2.755000000    -2.061000000
H     4.298000000     2.433000000    -3.540000000
O     3.004000000    -0.080000000     2.594000000
H     3.938000000     0.094000000     2.714000000
H     2.904000000    -0.213000000     1.651000000
O     2.874000000     1.995000000    -4.637000000
H     2.040000000     2.466000000    -4.667000000
H     2.627000000     1.071000000    -4.620000000
O    -0.252000000     5.575000000    -2.025000000
H     0.451000000     5.061000000    -1.629000000
H    -1.034000000     5.334000000    -1.528000000
O    -1.510000000     3.326000000     2.652000000
H    -1.472000000     3.406000000     1.699000000
H    -0.826000000     2.691000000     2.866000000
O    -0.860000000     4.697000000    -4.517000000
H    -1.742000000     4.958000000    -4.783000000
H    -0.775000000     5.020000000    -3.620000000
O     2.860000000    -4.206000000     4.757000000
H     3.657000000    -3.680000000     4.810000000
H     3.059000000    -4.879000000     4.106000000
O     2.776000000    -6.235000000     0.511000000
H     2.437000000    -5.708000000    -0.212000000
H     2.883000000    -7.111000000     0.140000000
O    -2.362000000     6.334000000     0.285000000
H    -1.738000000     5.611000000     0.343000000
H    -1.880000000     7.093000000     0.615000000
O     4.894000000    -4.201000000    -0.684000000
H     4.375000000    -5.005000000    -0.677000000
H     5.254000000    -4.140000000     0.201000000
O    -2.729000000     7.127000000     3.129000000
H    -2.887000000     7.592000000     2.308000000
H    -3.081000000     6.249000000     2.979000000
O    -0.570000000    -6.040000000     2.292000000
H    -0.733000000    -5.157000000     2.622000000
H    -0.854000000    -6.010000000     1.378000000
O    -4.611000000     3.101000000     0.685000000
H    -3.970000000     3.242000000    -0.011000000
H    -5.416000000     2.862000000     0.225000000
O     2.584000000     7.656000000     1.148000000
H     2.080000000     8.469000000     1.126000000
H     1.925000000     6.968000000     1.241000000
O    -4.113000000     6.490000000    -1.661000000
H    -3.370000000     6.508000000    -1.057000000
H    -4.184000000     7.390000000    -1.978000000
O    -3.101000000     1.261000000    -3.325000000
H    -3.174000000     1.565000000    -4.230000000
H    -2.637000000     1.965000000    -2.873000000
O    -5.968000000    -5.202000000     0.405000000
H    -5.957000000    -5.107000000     1.357000000
H    -5.498000000    -4.434000000     0.082000000
O    -6.583000000     1.260000000    -1.054000000
H    -6.865000000     1.712000000    -1.849000000
H    -7.354000000     0.767000000    -0.773000000
O     2.061000000    -4.018000000    -1.491000000
H     2.948000000    -3.821000000    -1.791000000
H     1.500000000    -3.438000000    -2.006000000
O    -3.716000000     4.510000000     3.017000000
H    -4.061000000     4.094000000     2.227000000
H    -2.828000000     4.162000000     3.102000000
O    -1.151000000    -3.503000000     2.617000000
H    -1.519000000    -2.951000000     1.927000000
H    -0.362000000    -3.040000000     2.899000000
