158
-3034.33853
C     0.640000000    -1.159000000     0.536000000
H     0.996000000    -2.091000000     0.969000000
C    -0.617000000    -1.185000000    -0.057000000
H    -1.195000000    -2.100000000    -0.160000000
C    -1.089000000    -0.014000000    -0.591000000
H    -2.118000000     0.043000000    -1.014000000
C    -0.338000000     1.173000000    -0.460000000
H    -0.748000000     2.159000000    -0.669000000
C     0.878000000     1.111000000     0.189000000
H     1.415000000     2.046000000     0.323000000
C     1.430000000    -0.026000000     0.673000000
C     2.796000000    -0.017000000     1.374000000
O     3.281000000     1.060000000     1.760000000
O     3.258000000    -1.086000000     1.693000000
O     3.308000000    -3.968000000     1.794000000
H     3.490000000    -4.334000000     2.659000000
H     3.338000000    -3.021000000     1.923000000
O     3.732000000     0.167000000    -2.040000000
H     4.416000000     0.753000000    -1.715000000
H     4.113000000    -0.237000000    -2.819000000
O    -4.752000000    -3.942000000    -3.347000000
H    -5.239000000    -3.169000000    -3.061000000
H    -4.946000000    -4.606000000    -2.685000000
O    -1.429000000     0.229000000    -3.746000000
H    -2.303000000    -0.161000000    -3.776000000
H    -0.845000000    -0.467000000    -4.047000000
O    -0.652000000     4.778000000    -0.060000000
H    -0.504000000     4.429000000     0.819000000
H    -0.105000000     5.563000000    -0.101000000
O     5.213000000    -2.139000000    -0.072000000
H     4.630000000    -1.475000000     0.296000000
H     4.662000000    -2.629000000    -0.683000000
O    -6.219000000    -2.134000000    -1.857000000
H    -7.004000000    -2.071000000    -2.400000000
H    -6.551000000    -2.295000000    -0.974000000
O     0.002000000     0.471000000     3.853000000
H     0.484000000     0.501000000     4.679000000
H     0.407000000    -0.247000000     3.366000000
O    -4.304000000     3.888000000    -1.339000000
H    -3.800000000     3.861000000    -0.526000000
H    -3.697000000     3.566000000    -2.007000000
O     2.825000000    -1.629000000     4.132000000
H     3.364000000    -1.057000000     4.678000000
H     2.931000000    -1.284000000     3.246000000
O     7.280000000    -0.660000000     2.180000000
H     7.270000000    -1.430000000     2.749000000
H     6.417000000    -0.263000000     2.300000000
O     4.728000000     1.065000000     4.247000000
H     4.500000000     1.827000000     4.779000000
H     4.312000000     1.231000000     3.401000000
O     7.656000000    -3.113000000     0.277000000
H     7.004000000    -2.438000000     0.084000000
H     7.336000000    -3.533000000     1.076000000
O     2.538000000     3.805000000     2.503000000
H     2.786000000     3.948000000     3.417000000
H     2.965000000     2.983000000     2.264000000
O    -2.545000000     1.215000000    -6.814000000
H    -2.993000000     0.873000000    -6.041000000
H    -2.400000000     2.141000000    -6.618000000
O     3.848000000     3.803000000     4.976000000
H     3.203000000     3.416000000     5.568000000
H     3.885000000     4.725000000     5.231000000
O     1.547000000    -4.208000000    -0.053000000
H     2.205000000    -4.299000000     0.636000000
H     1.937000000    -3.596000000    -0.678000000
O    -4.393000000    -0.270000000    -5.140000000
H    -4.727000000    -0.002000000    -4.284000000
H    -4.534000000    -1.216000000    -5.167000000
O     6.634000000    -4.727000000     2.183000000
H     6.985000000    -5.066000000     3.006000000
H     5.859000000    -4.227000000     2.440000000
O    -2.242000000     6.878000000    -1.050000000
H    -2.680000000     7.009000000    -0.209000000
H    -1.872000000     5.997000000    -0.992000000
O    -4.082000000    -1.414000000     2.162000000
H    -3.500000000    -0.736000000     1.818000000
H    -3.662000000    -1.702000000     2.972000000
O    -2.374000000     2.645000000    -3.119000000
H    -1.573000000     3.144000000    -2.959000000
H    -2.069000000     1.817000000    -3.491000000
O     3.271000000     3.124000000    -3.910000000
H     2.721000000     2.344000000    -3.835000000
H     3.148000000     3.584000000    -3.080000000
O    -3.950000000     2.526000000     1.264000000
H    -3.735000000     3.163000000     1.945000000
H    -3.384000000     1.777000000     1.448000000
O     0.037000000     4.057000000    -2.670000000
H     0.148000000     4.258000000    -1.741000000
H     0.537000000     3.251000000    -2.802000000
O    -3.116000000     3.895000000     3.369000000
H    -2.245000000     4.188000000     3.103000000
H    -3.597000000     4.703000000     3.545000000
O    -4.993000000     0.078000000    -2.443000000
H    -4.599000000     0.510000000    -1.685000000
H    -5.403000000    -0.709000000    -2.084000000
O     0.464000000    -3.337000000     3.766000000
H    -0.179000000    -2.636000000     3.873000000
H     1.311000000    -2.897000000     3.834000000
O     3.692000000     5.965000000     0.821000000
H     4.642000000     6.054000000     0.748000000
H     3.537000000     5.021000000     0.792000000
O     1.172000000     6.866000000    -0.524000000
H     1.830000000     6.505000000     0.072000000
H     1.555000000     7.685000000    -0.836000000
O     5.080000000     3.047000000     0.198000000
H     4.545000000     2.616000000     0.865000000
H     5.132000000     2.411000000    -0.515000000
O    -4.618000000    -3.687000000     0.684000000
H    -4.700000000    -4.127000000     1.531000000
H    -4.478000000    -2.766000000     0.905000000
O     3.090000000     4.727000000    -1.849000000
H     2.860000000     5.581000000    -1.481000000
H     4.045000000     4.744000000    -1.915000000
O     1.250000000     1.497000000    -3.163000000
H     0.348000000     1.279000000    -3.398000000
H     1.503000000     0.823000000    -2.532000000
O    -0.137000000    -4.539000000    -2.254000000
H     0.332000000    -4.580000000    -1.421000000
H    -1.062000000    -4.555000000    -2.008000000
O     3.097000000    -2.552000000    -1.746000000
H     3.073000000    -2.933000000    -2.623000000
H     3.384000000    -1.649000000    -1.884000000
O    -2.073000000     0.492000000     1.952000000
H    -1.610000000     0.170000000     1.179000000
H    -1.427000000     0.442000000     2.657000000
O     0.150000000    -1.887000000    -4.036000000
H     0.158000000    -1.860000000    -3.079000000
H    -0.118000000    -2.781000000    -4.248000000
O     6.880000000    -2.638000000     4.181000000
H     6.117000000    -2.401000000     4.709000000
H     7.125000000    -3.509000000     4.492000000
O    -6.993000000     3.461000000    -1.242000000
H    -6.074000000     3.714000000    -1.322000000
H    -6.969000000     2.590000000    -0.846000000
O    -2.700000000    -3.782000000    -1.360000000
H    -3.363000000    -3.937000000    -0.688000000
H    -3.169000000    -3.886000000    -2.188000000
O     8.016000000     3.118000000     0.763000000
H     8.226000000     2.198000000     0.605000000
H     7.061000000     3.159000000     0.710000000
O    -0.302000000     3.832000000     3.085000000
H     0.335000000     3.150000000     2.873000000
H     0.130000000     4.364000000     3.753000000
O     6.174000000     1.055000000    -1.531000000
H     6.653000000     1.225000000    -2.342000000
H     6.767000000     0.512000000    -1.012000000
O    -3.925000000    -3.452000000    -5.885000000
H    -4.101000000    -3.835000000    -5.025000000
H    -2.981000000    -3.560000000    -6.006000000
O    -0.746000000    -5.168000000     1.774000000
H    -0.506000000    -4.800000000     0.923000000
H    -0.281000000    -4.623000000     2.409000000
O     1.743000000     0.560000000     5.835000000
H     2.336000000     1.169000000     6.274000000
H     1.927000000    -0.288000000     6.239000000
O    -6.452000000     1.312000000     0.500000000
H    -6.436000000     0.441000000     0.895000000
H    -5.778000000     1.802000000     0.972000000
