158
-3039.79776
C     0.465000000    -1.321000000     0.424000000
H     0.764000000    -2.337000000     0.666000000
C    -0.478000000    -1.069000000    -0.619000000
H    -0.855000000    -1.870000000    -1.249000000
C    -0.883000000     0.247000000    -0.853000000
H    -1.584000000     0.457000000    -1.662000000
C    -0.479000000     1.333000000    -0.035000000
H    -0.843000000     2.331000000    -0.262000000
C     0.487000000     1.031000000     0.934000000
H     0.912000000     1.923000000     1.387000000
C     0.953000000    -0.265000000     1.231000000
C     2.053000000    -0.511000000     2.262000000
O     2.582000000     0.405000000     2.795000000
O     2.338000000    -1.659000000     2.592000000
O     1.593000000    -4.957000000     1.407000000
H     0.647000000    -4.910000000     1.264000000
H     1.975000000    -4.615000000     0.599000000
O     2.603000000     0.565000000    -5.458000000
H     1.780000000     0.884000000    -5.087000000
H     2.838000000    -0.183000000    -4.910000000
O    -6.131000000    -1.394000000    -1.591000000
H    -6.382000000    -2.228000000    -1.989000000
H    -6.946000000    -0.893000000    -1.551000000
O     3.215000000    -6.643000000     2.790000000
H     2.572000000    -6.067000000     2.378000000
H     3.515000000    -7.213000000     2.081000000
O    -1.191000000     5.220000000     0.044000000
H    -1.010000000     5.081000000     0.973000000
H    -1.363000000     6.159000000    -0.028000000
O     3.908000000    -2.628000000     0.718000000
H     3.275000000    -2.419000000     1.406000000
H     4.624000000    -3.068000000     1.176000000
O     2.516000000    -3.439000000     4.385000000
H     2.225000000    -2.904000000     3.647000000
H     2.725000000    -4.289000000     3.996000000
O    -0.326000000    -1.811000000     3.974000000
H    -0.430000000    -1.338000000     4.799000000
H     0.597000000    -1.699000000     3.748000000
O    -5.426000000     1.949000000     2.305000000
H    -4.829000000     1.976000000     3.053000000
H    -5.132000000     2.662000000     1.739000000
O     4.292000000    -1.055000000     4.623000000
H     3.858000000    -1.902000000     4.525000000
H     3.714000000    -0.436000000     4.177000000
O     4.317000000     0.232000000     7.054000000
H     4.240000000    -0.381000000     6.323000000
H     4.741000000    -0.274000000     7.747000000
O    -1.625000000     6.068000000    -4.574000000
H    -1.619000000     5.435000000    -5.292000000
H    -1.365000000     5.562000000    -3.805000000
O     6.282000000     0.822000000     4.249000000
H     6.967000000     0.315000000     3.814000000
H     5.527000000     0.234000000     4.271000000
O     5.993000000    -4.140000000     1.404000000
H     6.020000000    -5.061000000     1.662000000
H     6.314000000    -3.667000000     2.172000000
O     2.753000000     3.013000000     3.647000000
H     3.377000000     2.830000000     4.350000000
H     2.482000000     2.150000000     3.337000000
O    -3.474000000    -0.425000000    -6.689000000
H    -3.067000000     0.266000000    -7.212000000
H    -4.323000000    -0.064000000    -6.435000000
O    -1.390000000    -0.039000000    -4.702000000
H    -2.075000000    -0.128000000    -5.365000000
H    -0.955000000    -0.892000000    -4.691000000
O    -5.797000000     0.779000000    -5.440000000
H    -5.508000000     0.976000000    -4.550000000
H    -5.629000000     1.583000000    -5.931000000
O     4.383000000     3.092000000     5.913000000
H     4.434000000     2.158000000     6.116000000
H     4.035000000     3.492000000     6.710000000
O     0.012000000    -7.746000000     1.362000000
H    -0.780000000    -8.100000000     0.955000000
H    -0.120000000    -6.798000000     1.358000000
O    -3.535000000    -1.900000000    -0.780000000
H    -3.103000000    -1.376000000    -1.454000000
H    -4.431000000    -1.565000000    -0.754000000
O    -3.649000000     3.805000000     0.581000000
H    -2.728000000     3.788000000     0.318000000
H    -4.052000000     4.450000000     0.000000000
O     2.247000000     5.333000000     5.273000000
H     1.296000000     5.441000000     5.267000000
H     2.403000000     4.558000000     4.734000000
O     0.413000000     1.857000000    -4.197000000
H     0.476000000     1.864000000    -3.242000000
H    -0.288000000     1.233000000    -4.386000000
O    -7.287000000     1.855000000    -2.263000000
H    -7.987000000     1.233000000    -2.462000000
H    -7.054000000     1.670000000    -1.353000000
O    -2.065000000     3.399000000    -5.474000000
H    -1.289000000     2.857000000    -5.616000000
H    -2.345000000     3.651000000    -6.354000000
O     6.039000000    -3.094000000     5.996000000
H     5.949000000    -3.896000000     5.482000000
H     5.607000000    -2.422000000     5.468000000
O    -0.597000000     4.466000000    -2.439000000
H    -0.963000000     4.733000000    -1.596000000
H     0.248000000     4.073000000    -2.220000000
O    -1.997000000    -3.861000000     3.457000000
H    -1.617000000    -3.004000000     3.268000000
H    -1.557000000    -4.148000000     4.257000000
O     1.317000000     5.206000000     2.085000000
H     1.529000000     4.539000000     2.737000000
H     2.031000000     5.156000000     1.450000000
O     4.392000000     2.253000000     0.909000000
H     3.834000000     1.764000000     1.515000000
H     4.497000000     1.670000000     0.157000000
O    -5.671000000     3.597000000    -3.699000000
H    -4.820000000     3.436000000    -3.290000000
H    -6.158000000     2.785000000    -3.565000000
O    -4.953000000    -3.032000000     1.693000000
H    -4.190000000    -2.741000000     2.192000000
H    -4.742000000    -2.816000000     0.785000000
O     3.265000000     4.944000000     0.127000000
H     3.560000000     4.061000000     0.349000000
H     4.069000000     5.461000000     0.080000000
O     2.028000000    -0.875000000    -2.445000000
H     1.368000000    -1.169000000    -1.817000000
H     2.294000000    -0.012000000    -2.126000000
O     1.407000000    -7.268000000    -1.077000000
H     1.262000000    -6.457000000    -1.564000000
H     0.958000000    -7.131000000    -0.243000000
O    -0.515000000    -5.082000000     5.450000000
H    -0.637000000    -5.146000000     6.397000000
H     0.429000000    -5.170000000     5.324000000
O    -3.182000000     2.856000000    -3.203000000
H    -2.364000000     3.124000000    -2.783000000
H    -2.939000000     2.688000000    -4.113000000
O     2.468000000    -4.162000000    -1.084000000
H     2.456000000    -3.799000000    -1.970000000
H     3.158000000    -3.675000000    -0.634000000
O    -2.431000000    -1.689000000     1.909000000
H    -2.339000000    -1.677000000     0.957000000
H    -1.916000000    -0.940000000     2.209000000
O    -0.047000000    -2.524000000    -4.838000000
H    -0.448000000    -3.387000000    -4.942000000
H     0.875000000    -2.660000000    -5.058000000
O     3.286000000    -4.506000000     6.915000000
H     3.172000000    -5.359000000     6.496000000
H     3.361000000    -3.890000000     6.187000000
O    -1.068000000    -5.204000000     0.984000000
H    -1.487000000    -4.813000000     1.750000000
H    -1.418000000    -4.711000000     0.242000000
O     6.579000000     3.076000000     2.393000000
H     6.421000000     2.571000000     3.191000000
H     5.868000000     2.824000000     1.805000000
O    -1.880000000     5.147000000     2.669000000
H    -1.435000000     5.224000000     3.513000000
H    -2.808000000     5.255000000     2.877000000
O     4.451000000    -0.011000000    -0.649000000
H     4.612000000    -0.217000000    -1.570000000
H     4.200000000    -0.847000000    -0.257000000
O    -2.720000000    -4.492000000    -0.881000000
H    -3.152000000    -4.984000000    -1.579000000
H    -3.098000000    -3.615000000    -0.937000000
O    -0.293000000    -0.310000000     6.304000000
H     0.105000000     0.486000000     6.657000000
H    -0.199000000    -0.956000000     7.005000000
