158
-3037.84293
C    -0.404000000    -1.133000000     0.906000000
H    -0.625000000    -1.978000000     1.554000000
C    -0.836000000    -1.028000000    -0.440000000
H    -1.491000000    -1.796000000    -0.843000000
C    -0.389000000     0.055000000    -1.193000000
H    -0.707000000     0.186000000    -2.257000000
C     0.442000000     1.052000000    -0.605000000
H     0.776000000     1.939000000    -1.137000000
C     0.939000000     0.888000000     0.721000000
H     1.587000000     1.641000000     1.162000000
C     0.469000000    -0.210000000     1.456000000
C     0.776000000    -0.133000000     2.966000000
O     1.462000000     0.740000000     3.423000000
O     0.422000000    -1.035000000     3.738000000
O     0.230000000    -6.550000000     1.497000000
H     0.102000000    -5.824000000     0.887000000
H    -0.654000000    -6.874000000     1.673000000
O    -1.735000000    -2.633000000    -3.403000000
H    -1.406000000    -2.182000000    -4.181000000
H    -2.586000000    -2.230000000    -3.235000000
O     1.946000000    -5.473000000     3.919000000
H     1.494000000    -5.672000000     3.099000000
H     1.272000000    -5.567000000     4.593000000
O     2.186000000     4.250000000     1.833000000
H     2.788000000     3.614000000     2.218000000
H     2.401000000     4.248000000     0.900000000
O     2.341000000    -2.819000000     4.625000000
H     2.004000000    -2.075000000     4.127000000
H     2.153000000    -3.580000000     4.076000000
O     2.716000000    -0.066000000     5.830000000
H     2.305000000     0.323000000     5.058000000
H     2.865000000    -0.979000000     5.587000000
O    -0.532000000    -3.199000000     5.781000000
H    -0.166000000    -3.130000000     6.663000000
H     0.003000000    -2.606000000     5.254000000
O    -4.801000000     3.245000000    -0.679000000
H    -4.743000000     3.266000000     0.276000000
H    -3.891000000     3.217000000    -0.974000000
O     0.345000000     3.008000000     3.675000000
H     0.671000000     2.108000000     3.686000000
H     0.903000000     3.457000000     3.040000000
O     1.442000000     4.203000000    -3.025000000
H     1.777000000     4.200000000    -2.128000000
H     2.126000000     4.639000000    -3.534000000
O     3.412000000     2.319000000     3.389000000
H     3.654000000     2.400000000     4.311000000
H     2.758000000     1.620000000     3.374000000
O     0.859000000     4.008000000     6.202000000
H     1.125000000     4.744000000     5.651000000
H     0.485000000     3.374000000     5.590000000
O    -4.868000000    -2.277000000    -5.374000000
H    -4.532000000    -2.047000000    -4.507000000
H    -4.234000000    -1.898000000    -5.983000000
O    -3.256000000    -0.105000000    -6.576000000
H    -3.940000000     0.249000000    -6.007000000
H    -2.520000000     0.498000000    -6.469000000
O    -3.890000000    -2.401000000     1.382000000
H    -3.765000000    -1.467000000     1.212000000
H    -4.839000000    -2.523000000     1.362000000
O     3.475000000     2.366000000    -3.643000000
H     4.303000000     2.494000000    -4.107000000
H     3.109000000     3.247000000    -3.560000000
O    -3.972000000    -1.342000000    -3.034000000
H    -3.699000000    -0.498000000    -2.674000000
H    -4.810000000    -1.524000000    -2.609000000
O    -1.266000000    -5.529000000     4.649000000
H    -0.904000000    -4.702000000     4.967000000
H    -1.416000000    -5.382000000     3.715000000
O    -0.563000000     4.222000000     0.502000000
H     0.013000000     4.423000000     1.239000000
H    -0.541000000     5.010000000    -0.041000000
O    -1.838000000    -4.300000000     1.697000000
H    -2.468000000    -3.580000000     1.703000000
H    -1.166000000    -4.025000000     1.073000000
O     0.528000000     1.531000000    -4.028000000
H     0.145000000     2.247000000    -3.522000000
H     1.459000000     1.747000000    -4.083000000
O     2.434000000    -1.052000000    -0.615000000
H     2.654000000    -1.695000000     0.058000000
H     1.625000000    -0.646000000    -0.303000000
O    -1.211000000     4.814000000    -3.477000000
H    -1.493000000     4.751000000    -4.390000000
H    -0.307000000     4.497000000    -3.483000000
O    -2.158000000     2.866000000    -1.380000000
H    -1.848000000     3.424000000    -2.093000000
H    -1.718000000     3.206000000    -0.601000000
O     3.245000000     3.145000000     7.318000000
H     2.343000000     3.187000000     7.000000000
H     3.296000000     3.831000000     7.984000000
O    -2.291000000    -0.629000000     4.414000000
H    -2.137000000     0.265000000     4.719000000
H    -1.421000000    -0.958000000     4.187000000
O     3.825000000    -2.821000000     0.999000000
H     4.565000000    -2.356000000     1.388000000
H     3.497000000    -3.380000000     1.703000000
O    -6.713000000     1.442000000    -3.108000000
H    -7.131000000     0.706000000    -2.660000000
H    -6.058000000     1.760000000    -2.487000000
O     0.095000000    -1.910000000    -5.587000000
H    -0.008000000    -1.831000000    -6.535000000
H     1.032000000    -1.790000000    -5.437000000
O    -6.095000000    -0.182000000    -0.067000000
H    -6.687000000     0.558000000     0.068000000
H    -5.240000000     0.142000000     0.215000000
O     4.225000000    -1.308000000    -2.569000000
H     3.566000000    -1.280000000    -1.876000000
H     4.438000000    -2.237000000    -2.659000000
O     1.063000000    -2.766000000    -2.531000000
H     1.131000000    -1.945000000    -2.044000000
H     0.174000000    -2.761000000    -2.886000000
O     5.384000000     1.931000000     6.402000000
H     4.721000000     2.451000000     6.858000000
H     5.049000000     1.035000000     6.434000000
O     3.184000000     4.319000000    -0.702000000
H     3.309000000     3.379000000    -0.834000000
H     3.891000000     4.726000000    -1.203000000
O    -0.697000000     1.198000000    -6.428000000
H    -0.566000000     2.146000000    -6.392000000
H    -0.134000000     0.852000000    -5.735000000
O    -3.651000000     0.560000000     0.069000000
H    -3.333000000     1.373000000    -0.324000000
H    -2.861000000     0.041000000     0.219000000
O     2.742000000    -3.372000000     7.247000000
H     1.983000000    -2.967000000     7.666000000
H     2.621000000    -3.199000000     6.314000000
O     1.503000000     6.527000000     2.799000000
H     1.794000000     5.652000000     2.542000000
H     1.755000000     6.602000000     3.719000000
O     2.391000000     0.993000000    -6.797000000
H     2.969000000     1.721000000    -7.027000000
H     1.567000000     1.191000000    -7.242000000
O     3.123000000     0.445000000     8.418000000
H     3.302000000     1.369000000     8.249000000
H     2.817000000     0.102000000     7.578000000
O     2.918000000    -1.154000000    -5.356000000
H     2.657000000    -0.332000000    -5.772000000
H     3.319000000    -0.887000000    -4.529000000
O     0.027000000    -4.545000000    -0.445000000
H     0.506000000    -4.085000000    -1.134000000
H    -0.691000000    -4.983000000    -0.903000000
O    -1.354000000     5.188000000     4.441000000
H    -0.808000000     4.431000000     4.226000000
H    -1.727000000     5.460000000     3.602000000
O     5.808000000     4.172000000     2.553000000
H     6.468000000     3.959000000     3.214000000
H     4.973000000     3.975000000     2.977000000
O    -2.615000000     2.302000000     3.843000000
H    -1.664000000     2.351000000     3.751000000
H    -2.773000000     2.433000000     4.778000000
O     3.246000000    -3.673000000    -3.686000000
H     2.503000000    -3.372000000    -3.163000000
H     3.226000000    -3.125000000    -4.470000000
O     3.618000000     1.625000000    -1.029000000
H     3.704000000     1.809000000    -1.964000000
H     3.385000000     0.697000000    -0.988000000
O    -2.203000000    -4.857000000    -1.916000000
H    -1.922000000    -4.204000000    -2.556000000
H    -3.146000000    -4.717000000    -1.830000000
