158
-3020.78283
C    -0.364000000    -1.232000000     0.716000000
H    -0.577000000    -2.219000000     1.118000000
C    -0.433000000    -1.051000000    -0.635000000
H    -0.849000000    -1.825000000    -1.275000000
C    -0.061000000     0.139000000    -1.234000000
H    -0.009000000     0.395000000    -2.326000000
C     0.214000000     1.224000000    -0.417000000
H     0.386000000     2.222000000    -0.812000000
C     0.454000000     0.969000000     0.965000000
H     0.769000000     1.770000000     1.629000000
C     0.236000000    -0.276000000     1.496000000
C     0.428000000    -0.439000000     3.010000000
O     0.903000000     0.423000000     3.714000000
O    -0.021000000    -1.381000000     3.592000000
O    -1.325000000    -6.973000000     2.872000000
H    -0.630000000    -7.173000000     2.245000000
H    -1.865000000    -6.319000000     2.429000000
O    -2.929000000    -2.765000000    -3.378000000
H    -2.293000000    -2.549000000    -4.060000000
H    -3.773000000    -2.500000000    -3.744000000
O     1.142000000     6.862000000     0.521000000
H     0.535000000     7.092000000     1.224000000
H     0.608000000     6.376000000    -0.107000000
O     0.273000000    -4.325000000     3.180000000
H     0.560000000    -3.752000000     3.891000000
H    -0.664000000    -4.152000000     3.097000000
O    -3.025000000    -1.145000000     7.538000000
H    -2.257000000    -1.314000000     8.084000000
H    -2.791000000    -0.368000000     7.031000000
O     2.696000000    -0.427000000     6.013000000
H     2.643000000    -0.106000000     5.113000000
H     2.061000000    -1.143000000     6.051000000
O     0.558000000    -2.519000000     5.961000000
H     0.264000000    -1.949000000     6.672000000
H     0.280000000    -2.068000000     5.163000000
O    -1.336000000     5.426000000     0.612000000
H    -1.856000000     6.212000000     0.445000000
H    -1.193000000     5.045000000    -0.254000000
O    -0.606000000     2.243000000     4.847000000
H     0.137000000     1.739000000     4.515000000
H    -0.560000000     3.075000000     4.377000000
O     2.643000000     5.172000000    -2.955000000
H     2.989000000     5.023000000    -2.075000000
H     3.364000000     4.936000000    -3.539000000
O    -4.304000000     3.230000000    -2.495000000
H    -3.872000000     3.486000000    -1.680000000
H    -4.513000000     2.304000000    -2.375000000
O     5.893000000    -0.169000000     4.063000000
H     5.202000000     0.487000000     4.153000000
H     6.175000000    -0.096000000     3.151000000
O     3.074000000     1.598000000     3.150000000
H     3.362000000     0.856000000     2.619000000
H     2.240000000     1.314000000     3.525000000
O    -1.022000000    -1.468000000    -5.118000000
H    -0.941000000    -0.515000000    -5.127000000
H    -1.023000000    -1.717000000    -6.042000000
O    -5.227000000    -2.534000000     3.674000000
H    -4.560000000    -1.873000000     3.861000000
H    -5.866000000    -2.081000000     3.124000000
O    -4.973000000    -0.986000000    -1.320000000
H    -5.599000000    -0.273000000    -1.442000000
H    -5.151000000    -1.587000000    -2.043000000
O     0.096000000     2.152000000     7.330000000
H    -0.091000000     2.205000000     6.392000000
H     0.099000000     3.062000000     7.626000000
O    -2.037000000    -3.712000000     6.508000000
H    -1.099000000    -3.905000000     6.491000000
H    -2.133000000    -2.943000000     5.946000000
O     5.054000000    -0.549000000    -4.746000000
H     5.604000000    -0.299000000    -4.004000000
H     4.203000000    -0.750000000    -4.356000000
O    -0.311000000     4.116000000     2.854000000
H    -0.332000000     4.863000000     3.452000000
H    -0.656000000     4.460000000     2.030000000
O    -2.665000000     1.468000000    -4.864000000
H    -2.543000000     2.258000000    -4.337000000
H    -3.547000000     1.555000000    -5.225000000
O    -2.490000000    -3.584000000     2.412000000
H    -2.466000000    -2.968000000     3.144000000
H    -3.264000000    -3.329000000     1.910000000
O     1.798000000     2.317000000    -3.424000000
H     1.748000000     2.262000000    -2.470000000
H     2.403000000     3.040000000    -3.590000000
O    -1.373000000     4.151000000    -5.048000000
H    -0.598000000     4.626000000    -5.347000000
H    -1.735000000     3.760000000    -5.843000000
O     2.810000000    -1.227000000    -0.630000000
H     2.891000000    -1.920000000    -1.285000000
H     1.924000000    -0.884000000    -0.752000000
O    -1.417000000     4.882000000    -2.039000000
H    -1.551000000     5.821000000    -2.168000000
H    -1.136000000     4.559000000    -2.895000000
O    -3.522000000     3.001000000     1.365000000
H    -3.131000000     2.197000000     1.021000000
H    -2.780000000     3.593000000     1.488000000
O    -2.455000000    -1.591000000     4.423000000
H    -2.761000000    -0.775000000     4.819000000
H    -1.682000000    -1.338000000     3.919000000
O     1.762000000    -4.377000000     1.054000000
H     1.167000000    -4.369000000     1.804000000
H     1.260000000    -3.973000000     0.346000000
O    -4.503000000    -3.183000000     0.456000000
H    -5.170000000    -3.273000000     1.136000000
H    -4.665000000    -2.321000000     0.074000000
O     2.054000000    -2.556000000    -7.159000000
H     1.962000000    -1.635000000    -6.914000000
H     2.890000000    -2.599000000    -7.622000000
O     0.879000000    -3.407000000    -4.608000000
H     0.142000000    -2.805000000    -4.708000000
H     1.429000000    -3.242000000    -5.375000000
O     3.985000000     1.873000000     7.172000000
H     4.107000000     1.526000000     8.055000000
H     3.463000000     1.207000000     6.723000000
O     3.122000000     3.982000000    -0.156000000
H     2.916000000     3.073000000    -0.376000000
H     3.303000000     3.966000000     0.784000000
O     0.065000000     1.258000000    -5.089000000
H    -0.835000000     1.530000000    -4.908000000
H     0.594000000     1.739000000    -4.452000000
O    -2.933000000     0.699000000     0.075000000
H    -3.450000000     0.354000000    -0.654000000
H    -2.063000000     0.319000000    -0.048000000
O     3.011000000    -3.311000000     6.086000000
H     3.300000000    -3.223000000     5.177000000
H     2.077000000    -3.103000000     6.062000000
O    -0.055000000    -0.743000000     7.976000000
H     0.251000000    -1.017000000     8.840000000
H     0.205000000     0.176000000     7.909000000
O     1.964000000     0.154000000    -6.518000000
H     1.427000000     0.691000000    -5.936000000
H     2.218000000     0.747000000    -7.225000000
O     3.690000000    -0.781000000     2.035000000
H     3.566000000    -0.886000000     1.091000000
H     3.885000000    -1.663000000     2.350000000
O     2.431000000    -0.425000000    -3.862000000
H     2.093000000    -0.599000000    -4.741000000
H     2.103000000     0.448000000    -3.648000000
O     0.804000000    -4.256000000    -1.840000000
H     0.904000000    -3.860000000    -2.706000000
H    -0.128000000    -4.164000000    -1.641000000
O     4.204000000     4.033000000     2.464000000
H     5.083000000     3.762000000     2.727000000
H     3.657000000     3.264000000     2.626000000
O    -2.539000000     0.953000000     5.855000000
H    -1.745000000     1.280000000     5.433000000
H    -2.943000000     1.730000000     6.241000000
O     3.677000000    -2.958000000    -3.139000000
H     3.347000000    -3.647000000    -3.716000000
H     3.317000000    -2.149000000    -3.503000000
O     3.480000000     1.509000000    -1.080000000
H     4.423000000     1.510000000    -1.244000000
H     3.259000000     0.585000000    -0.960000000
O    -2.459000000    -4.426000000    -1.008000000
H    -2.651000000    -3.838000000    -1.739000000
H    -3.069000000    -4.160000000    -0.320000000
O     3.800000000    -3.274000000     3.341000000
H     3.165000000    -3.827000000     2.885000000
H     4.589000000    -3.812000000     3.399000000
