158
-3048.61783
C    -0.792000000    -1.219000000     0.060000000
H    -1.497000000    -2.046000000     0.055000000
C    -1.098000000    -0.107000000    -0.731000000
H    -1.978000000    -0.145000000    -1.368000000
C    -0.125000000     0.944000000    -0.806000000
H    -0.298000000     1.803000000    -1.475000000
C     0.965000000     0.893000000    -0.034000000
H     1.577000000     1.790000000    -0.089000000
C     1.203000000    -0.150000000     0.894000000
H     2.130000000    -0.116000000     1.461000000
C     0.334000000    -1.230000000     0.919000000
C     0.449000000    -2.320000000     1.959000000
O     1.193000000    -2.103000000     2.902000000
O    -0.304000000    -3.293000000     2.016000000
O    -1.292000000    -7.200000000     2.676000000
H    -1.128000000    -7.955000000     2.110000000
H    -0.652000000    -6.546000000     2.395000000
O    -3.251000000    -2.835000000    -4.494000000
H    -3.356000000    -2.144000000    -3.840000000
H    -3.795000000    -2.553000000    -5.230000000
O    -0.701000000     4.531000000    -5.893000000
H    -0.182000000     3.873000000    -6.357000000
H    -1.535000000     4.552000000    -6.363000000
O     1.527000000     4.490000000    -1.954000000
H     2.093000000     3.723000000    -2.042000000
H     1.219000000     4.664000000    -2.843000000
O     3.369000000     4.509000000     1.982000000
H     3.559000000     3.578000000     2.100000000
H     2.417000000     4.571000000     2.060000000
O    -0.978000000    -5.397000000     0.241000000
H    -0.913000000    -4.553000000     0.690000000
H    -1.914000000    -5.595000000     0.238000000
O     0.747000000    -2.580000000     5.456000000
H     0.835000000    -2.502000000     4.506000000
H     0.458000000    -3.481000000     5.597000000
O    -1.200000000    -6.544000000     5.237000000
H    -1.296000000    -6.852000000     4.336000000
H    -1.925000000    -6.955000000     5.709000000
O    -5.322000000     4.725000000     0.550000000
H    -5.297000000     5.658000000     0.336000000
H    -4.419000000     4.510000000     0.787000000
O    -0.829000000     2.464000000     1.788000000
H    -0.215000000     3.144000000     1.508000000
H    -0.588000000     1.696000000     1.270000000
O    -0.664000000    -0.248000000     5.320000000
H    -0.064000000    -0.994000000     5.310000000
H    -0.096000000     0.515000000     5.431000000
O     5.001000000    -1.369000000     4.549000000
H     5.366000000    -1.414000000     5.433000000
H     4.397000000    -0.626000000     4.576000000
O     3.813000000     5.761000000    -1.012000000
H     4.074000000     4.895000000    -0.697000000
H     3.081000000     5.589000000    -1.605000000
O    -3.312000000     2.390000000    -1.864000000
H    -3.567000000     3.203000000    -1.429000000
H    -2.518000000     2.616000000    -2.349000000
O     4.753000000    -2.211000000    -0.383000000
H     4.252000000    -2.935000000    -0.007000000
H     4.638000000    -2.305000000    -1.328000000
O     2.601000000     0.095000000     3.966000000
H     2.111000000     0.664000000     4.560000000
H     2.018000000    -0.648000000     3.811000000
O    -1.157000000    -1.097000000    -4.286000000
H    -0.584000000    -1.613000000    -3.720000000
H    -1.621000000    -1.747000000    -4.814000000
O    -5.625000000     1.342000000    -3.036000000
H    -4.730000000     1.392000000    -2.702000000
H    -5.742000000     2.154000000    -3.531000000
O    -4.554000000    -1.603000000     2.802000000
H    -4.272000000    -0.758000000     3.152000000
H    -5.223000000    -1.383000000     2.154000000
O    -5.039000000    -1.038000000    -1.707000000
H    -5.925000000    -1.222000000    -2.019000000
H    -4.977000000    -0.083000000    -1.709000000
O    -3.822000000    -6.505000000     2.080000000
H    -3.161000000    -7.024000000     2.538000000
H    -3.646000000    -5.603000000     2.348000000
O     6.365000000     0.097000000    -1.271000000
H     6.935000000    -0.623000000    -1.543000000
H     5.665000000    -0.327000000    -0.774000000
O    -1.672000000     0.574000000    -6.769000000
H    -1.467000000     0.137000000    -5.942000000
H    -1.327000000     1.460000000    -6.664000000
O    -6.146000000     0.034000000     1.338000000
H    -5.304000000     0.470000000     1.469000000
H    -6.790000000     0.644000000     1.699000000
O    -4.139000000    -3.380000000    -0.912000000
H    -3.702000000    -3.222000000    -0.075000000
H    -4.383000000    -2.508000000    -1.224000000
O     3.211000000     2.620000000    -2.618000000
H     3.722000000     2.150000000    -3.276000000
H     3.631000000     2.401000000    -1.786000000
O    -1.668000000     1.801000000    -4.342000000
H    -0.846000000     2.290000000    -4.321000000
H    -1.413000000     0.894000000    -4.171000000
O     2.091000000    -1.244000000    -1.749000000
H     1.661000000    -0.570000000    -1.224000000
H     3.001000000    -0.956000000    -1.811000000
O    -4.003000000     2.709000000    -5.141000000
H    -3.130000000     2.362000000    -4.956000000
H    -3.940000000     3.641000000    -4.933000000
O     1.530000000    -0.946000000     7.598000000
H     1.363000000    -1.518000000     6.850000000
H     0.694000000    -0.507000000     7.755000000
O    -5.028000000    -5.936000000    -0.363000000
H    -4.518000000    -5.135000000    -0.479000000
H    -4.859000000    -6.199000000     0.541000000
O    -2.642000000     4.394000000     0.736000000
H    -1.808000000     4.167000000     1.146000000
H    -2.708000000     5.344000000     0.836000000
O    -2.848000000    -3.463000000     1.523000000
H    -3.239000000    -2.814000000     2.108000000
H    -1.935000000    -3.522000000     1.807000000
O     0.617000000     4.660000000     0.681000000
H     0.648000000     5.592000000     0.895000000
H     0.812000000     4.623000000    -0.256000000
O     1.884000000    -6.143000000     0.150000000
H     1.293000000    -5.902000000     0.863000000
H     1.311000000    -6.262000000    -0.607000000
O     4.270000000    -6.131000000     3.577000000
H     3.628000000    -6.760000000     3.906000000
H     3.896000000    -5.275000000     3.787000000
O     6.192000000    -1.473000000     1.759000000
H     5.578000000    -1.321000000     2.478000000
H     5.638000000    -1.734000000     1.023000000
O     4.342000000     2.228000000    -0.180000000
H     4.272000000     2.127000000     0.770000000
H     5.249000000     2.495000000    -0.326000000
O     3.170000000    -3.536000000     7.142000000
H     2.740000000    -3.104000000     6.404000000
H     4.029000000    -3.789000000     6.805000000
O     0.781000000     2.801000000    -4.109000000
H     0.980000000     3.372000000    -4.851000000
H     1.631000000     2.451000000    -3.842000000
O     0.654000000     2.707000000    -7.330000000
H     1.081000000     2.006000000    -6.838000000
H     1.047000000     2.661000000    -8.202000000
O     3.360000000    -3.572000000     3.836000000
H     2.581000000    -3.134000000     3.494000000
H     3.943000000    -2.858000000     4.092000000
O    -4.121000000     1.714000000     1.579000000
H    -3.301000000     2.160000000     1.369000000
H    -4.654000000     2.382000000     2.011000000
O     3.380000000    -4.016000000     1.010000000
H     2.940000000    -4.795000000     0.670000000
H     3.266000000    -4.072000000     1.959000000
O     3.854000000     1.940000000     2.468000000
H     4.642000000     2.089000000     2.991000000
H     3.508000000     1.107000000     2.788000000
O    -0.134000000    -2.956000000    -2.323000000
H     0.757000000    -2.653000000    -2.149000000
H    -0.575000000    -2.902000000    -1.475000000
O    -0.019000000    -6.285000000    -2.093000000
H    -0.368000000    -5.927000000    -1.277000000
H    -0.578000000    -5.914000000    -2.775000000
O     0.830000000    -5.391000000     2.928000000
H     0.519000000    -4.591000000     2.505000000
H     0.666000000    -5.249000000     3.860000000
