158
-3039.62139
C    -0.736000000    -1.230000000     0.029000000
H    -1.464000000    -2.037000000     0.069000000
C    -1.084000000    -0.084000000    -0.687000000
H    -2.028000000     0.060000000    -1.206000000
C    -0.213000000     1.003000000    -0.676000000
H    -0.513000000     1.921000000    -1.185000000
C     0.931000000     0.964000000     0.128000000
H     1.666000000     1.753000000    -0.011000000
C     1.246000000    -0.225000000     0.856000000
H     2.107000000    -0.292000000     1.516000000
C     0.378000000    -1.327000000     0.847000000
C     0.511000000    -2.384000000     1.897000000
O     1.120000000    -2.127000000     2.937000000
O    -0.250000000    -3.355000000     1.836000000
O    -0.219000000    -7.068000000     1.970000000
H     0.467000000    -7.384000000     2.558000000
H    -0.811000000    -7.814000000     1.870000000
O    -3.841000000    -2.266000000    -5.387000000
H    -3.243000000    -2.707000000    -4.784000000
H    -3.313000000    -2.097000000    -6.168000000
O     0.019000000     3.498000000    -7.066000000
H    -0.040000000     3.704000000    -7.999000000
H    -0.865000000     3.223000000    -6.825000000
O     1.449000000     1.270000000    -6.450000000
H     0.820000000     1.064000000    -5.759000000
H     1.056000000     2.006000000    -6.920000000
O     4.086000000     3.463000000     0.208000000
H     4.246000000     2.732000000     0.805000000
H     3.293000000     3.880000000     0.547000000
O    -0.912000000    -5.212000000     0.039000000
H    -0.683000000    -4.511000000     0.650000000
H    -0.826000000    -6.015000000     0.554000000
O    -0.543000000    -0.442000000     7.582000000
H     0.226000000    -0.363000000     7.018000000
H    -1.056000000     0.345000000     7.399000000
O    -0.774000000     5.627000000    -3.488000000
H    -1.106000000     4.774000000    -3.767000000
H    -1.122000000     6.242000000    -4.132000000
O     2.588000000    -3.234000000     5.086000000
H     1.923000000    -3.059000000     4.420000000
H     3.080000000    -2.416000000     5.153000000
O    -4.815000000     5.648000000    -2.333000000
H    -4.100000000     5.981000000    -1.790000000
H    -4.831000000     4.707000000    -2.158000000
O     0.577000000     2.611000000     2.637000000
H     0.939000000     2.740000000     3.514000000
H     0.915000000     3.348000000     2.128000000
O     0.155000000    -0.463000000     4.902000000
H    -0.754000000    -0.268000000     4.677000000
H     0.295000000    -1.354000000     4.581000000
O     5.749000000    -1.158000000     4.348000000
H     5.037000000    -0.618000000     4.005000000
H     5.635000000    -2.006000000     3.918000000
O    -3.615000000     3.057000000    -1.291000000
H    -3.320000000     3.600000000    -0.560000000
H    -2.999000000     3.251000000    -1.998000000
O     5.199000000     0.521000000    -0.456000000
H     5.073000000    -0.372000000    -0.778000000
H     5.493000000     1.012000000    -1.224000000
O     3.147000000    -0.412000000     3.727000000
H     2.639000000     0.380000000     3.903000000
H     2.500000000    -1.050000000     3.426000000
O    -2.041000000    -3.148000000    -3.666000000
H    -1.770000000    -3.873000000    -3.103000000
H    -1.238000000    -2.876000000    -4.110000000
O    -4.899000000     0.627000000    -1.568000000
H    -4.481000000     1.488000000    -1.556000000
H    -5.492000000     0.638000000    -0.818000000
O    -3.234000000    -0.658000000     3.985000000
H    -2.599000000    -0.154000000     3.477000000
H    -4.086000000    -0.373000000     3.654000000
O    -4.057000000    -2.113000000    -1.667000000
H    -4.417000000    -1.240000000    -1.823000000
H    -3.471000000    -2.267000000    -2.408000000
O    -3.989000000    -6.458000000     1.527000000
H    -3.587000000    -6.818000000     2.317000000
H    -3.743000000    -5.533000000     1.533000000
O    -4.891000000    -2.308000000     1.041000000
H    -4.441000000    -2.225000000     0.200000000
H    -4.298000000    -2.831000000     1.580000000
O    -3.158000000    -5.088000000    -1.415000000
H    -2.444000000    -5.258000000    -0.801000000
H    -3.272000000    -4.138000000    -1.394000000
O     3.533000000     0.616000000    -4.074000000
H     3.259000000     1.263000000    -4.724000000
H     3.762000000     1.134000000    -3.302000000
O    -1.782000000     2.959000000    -3.953000000
H    -1.455000000     2.061000000    -3.901000000
H    -2.021000000     3.074000000    -4.873000000
O     1.522000000    -0.940000000    -2.767000000
H     2.373000000    -0.524000000    -2.904000000
H     1.246000000    -0.640000000    -1.901000000
O    -6.941000000    -0.692000000    -3.002000000
H    -7.555000000    -0.214000000    -2.445000000
H    -6.095000000    -0.594000000    -2.566000000
O     2.224000000    -7.145000000     3.492000000
H     2.845000000    -6.744000000     2.883000000
H     2.190000000    -6.539000000     4.233000000
O    -2.805000000     3.155000000    -6.582000000
H    -2.984000000     4.051000000    -6.867000000
H    -3.657000000     2.819000000    -6.304000000
O     0.369000000     6.128000000    -0.710000000
H     0.638000000     5.312000000    -0.288000000
H     0.046000000     5.857000000    -1.570000000
O    -2.863000000    -3.871000000     2.078000000
H    -2.963000000    -4.289000000     2.933000000
H    -1.941000000    -3.616000000     2.042000000
O     1.363000000    -4.413000000     7.058000000
H     1.940000000    -4.051000000     6.384000000
H     1.938000000    -4.567000000     7.807000000
O     1.521000000     5.024000000     1.602000000
H     0.897000000     5.740000000     1.484000000
H     2.207000000     5.392000000     2.159000000
O    -2.167000000     5.311000000     0.918000000
H    -3.100000000     5.161000000     0.769000000
H    -1.991000000     6.156000000     0.505000000
O     2.669000000    -4.467000000    -1.826000000
H     2.483000000    -4.623000000    -0.901000000
H     3.108000000    -5.265000000    -2.121000000
O     1.908000000     6.704000000    -3.116000000
H     1.252000000     6.055000000    -3.372000000
H     1.892000000     6.695000000    -2.159000000
O     4.310000000     2.505000000    -2.256000000
H     4.147000000     2.718000000    -1.337000000
H     4.615000000     3.326000000    -2.643000000
O     3.982000000    -5.350000000     5.709000000
H     3.769000000    -5.414000000     6.640000000
H     3.694000000    -4.472000000     5.457000000
O    -1.093000000     0.426000000    -4.734000000
H    -1.708000000     0.144000000    -5.411000000
H    -0.544000000    -0.342000000    -4.575000000
O     4.215000000    -3.118000000     1.516000000
H     3.440000000    -3.660000000     1.371000000
H     4.268000000    -2.562000000     0.738000000
O    -1.446000000     0.816000000     2.583000000
H    -1.454000000     0.332000000     1.757000000
H    -0.678000000     1.385000000     2.520000000
O     4.509000000    -2.316000000    -1.236000000
H     3.785000000    -2.943000000    -1.257000000
H     5.133000000    -2.649000000    -1.880000000
O     0.612000000    -2.080000000    -5.151000000
H     1.152000000    -1.727000000    -4.443000000
H     1.042000000    -1.783000000    -5.952000000
O     4.642000000     1.214000000     2.069000000
H     4.844000000     0.933000000     1.176000000
H     4.075000000     0.525000000     2.415000000
O     0.117000000    -4.657000000    -2.572000000
H     1.025000000    -4.376000000    -2.459000000
H    -0.186000000    -4.851000000    -1.685000000
O    -3.081000000    -4.827000000     4.641000000
H    -3.124000000    -5.633000000     5.155000000
H    -2.419000000    -4.295000000     5.083000000
O     6.125000000     2.334000000     4.111000000
H     5.398000000     2.315000000     3.489000000
H     6.862000000     1.960000000     3.629000000
O     2.272000000    -4.661000000     0.786000000
H     1.399000000    -4.802000000     1.153000000
H     2.758000000    -5.454000000     1.014000000
