158
-2998.04751
C     1.027000000    -0.923000000    -0.492000000
H     1.776000000    -1.572000000    -0.938000000
C     0.340000000    -0.048000000    -1.307000000
H     0.722000000     0.028000000    -2.322000000
C    -0.587000000     0.753000000    -0.725000000
H    -1.065000000     1.436000000    -1.371000000
C    -0.948000000     0.643000000     0.617000000
H    -1.689000000     1.328000000     1.022000000
C    -0.228000000    -0.205000000     1.409000000
H    -0.408000000    -0.148000000     2.479000000
C     0.759000000    -1.037000000     0.871000000
C     1.653000000    -1.743000000     1.875000000
O     1.194000000    -2.122000000     2.945000000
O     2.861000000    -1.868000000     1.634000000
O     0.026000000    -1.189000000     5.240000000
H     0.637000000    -0.455000000     5.305000000
H     0.186000000    -1.558000000     4.372000000
O    -0.025000000     4.590000000    -1.755000000
H    -0.292000000     4.853000000    -2.636000000
H    -0.567000000     5.122000000    -1.172000000
O     2.192000000    -4.559000000     2.985000000
H     1.924000000    -3.645000000     2.886000000
H     1.619000000    -4.904000000     3.669000000
O    -3.485000000     5.121000000     2.714000000
H    -3.828000000     5.371000000     3.571000000
H    -2.538000000     5.063000000     2.842000000
O    -1.145000000    -3.802000000     3.094000000
H    -1.514000000    -3.551000000     2.247000000
H    -0.299000000    -3.356000000     3.127000000
O     4.976000000    -3.091000000     2.957000000
H     4.371000000    -2.381000000     2.741000000
H     5.482000000    -3.227000000     2.156000000
O     2.331000000     2.836000000     2.053000000
H     3.029000000     2.389000000     1.574000000
H     1.528000000     2.584000000     1.596000000
O     4.192000000     1.704000000    -1.135000000
H     4.823000000     1.906000000    -1.825000000
H     3.676000000     2.504000000    -1.041000000
O     3.343000000    -0.535000000     4.360000000
H     2.868000000     0.089000000     4.909000000
H     2.806000000    -0.617000000     3.571000000
O    -1.734000000    -1.874000000    -2.720000000
H    -1.437000000    -1.676000000    -3.608000000
H    -1.213000000    -1.300000000    -2.159000000
O    -2.680000000     0.437000000    -4.768000000
H    -1.730000000     0.496000000    -4.868000000
H    -2.807000000     0.088000000    -3.886000000
O    -3.728000000    -0.176000000     4.674000000
H    -3.503000000     0.743000000     4.527000000
H    -4.628000000    -0.256000000     4.359000000
O    -3.888000000    -3.029000000    -4.578000000
H    -3.039000000    -2.637000000    -4.373000000
H    -4.250000000    -2.470000000    -5.266000000
O    -1.118000000     2.643000000     4.689000000
H    -1.900000000     2.439000000     4.176000000
H    -0.984000000     3.582000000     4.558000000
O     1.232000000    -1.367000000     7.886000000
H     0.783000000    -1.702000000     7.110000000
H     1.001000000    -0.438000000     7.915000000
O    -2.177000000    -3.316000000    -0.221000000
H    -1.310000000    -3.685000000    -0.388000000
H    -2.181000000    -2.487000000    -0.698000000
O    -0.085000000     0.193000000    -5.256000000
H     0.117000000     0.479000000    -6.147000000
H     0.739000000     0.296000000    -4.779000000
O    -1.450000000     3.310000000    -6.087000000
H    -0.873000000     3.260000000    -6.849000000
H    -1.769000000     2.415000000    -5.969000000
O    -6.519000000     0.493000000    -3.355000000
H    -7.268000000     0.223000000    -2.823000000
H    -6.560000000     1.449000000    -3.358000000
O     1.279000000     1.189000000     5.414000000
H     0.564000000     1.748000000     5.109000000
H     1.556000000     1.584000000     6.241000000
O    -3.583000000     2.486000000     3.272000000
H    -3.542000000     3.358000000     2.880000000
H    -3.951000000     1.931000000     2.584000000
O    -2.467000000    -2.296000000     6.059000000
H    -2.982000000    -1.574000000     5.696000000
H    -1.557000000    -2.043000000     5.903000000
O    -2.418000000    -5.461000000     4.959000000
H    -3.065000000    -4.946000000     5.442000000
H    -2.135000000    -4.885000000     4.249000000
O     2.394000000     3.727000000    -1.005000000
H     2.596000000     4.631000000    -0.762000000
H     1.457000000     3.737000000    -1.201000000
O    -5.458000000     4.455000000     0.926000000
H    -6.385000000     4.680000000     0.994000000
H    -5.028000000     5.011000000     1.576000000
O     3.440000000    -5.843000000    -2.909000000
H     3.008000000    -6.386000000    -2.250000000
H     2.740000000    -5.294000000    -3.262000000
O    -0.979000000     5.541000000    -4.093000000
H    -0.949000000     4.759000000    -4.644000000
H    -1.675000000     6.076000000    -4.474000000
O     5.377000000    -2.249000000     5.936000000
H     5.487000000    -3.181000000     6.125000000
H     5.273000000    -2.208000000     4.986000000
O     6.634000000    -2.525000000     0.554000000
H     6.820000000    -2.967000000    -0.274000000
H     5.949000000    -1.892000000     0.339000000
O    -5.068000000     0.793000000     1.417000000
H    -5.405000000     1.370000000     0.732000000
H    -5.768000000     0.761000000     2.069000000
O     2.926000000     3.720000000    -3.998000000
H     2.410000000     4.178000000    -3.335000000
H     3.708000000     3.424000000    -3.531000000
O     2.492000000    -2.841000000     5.682000000
H     1.986000000    -3.028000000     4.891000000
H     3.166000000    -2.225000000     5.394000000
O     2.633000000     0.709000000    -4.362000000
H     3.219000000     0.520000000    -5.095000000
H     2.756000000     1.642000000    -4.191000000
O     5.139000000    -6.378000000     3.067000000
H     4.741000000    -5.508000000     3.042000000
H     5.738000000    -6.347000000     3.812000000
O    -1.330000000    -2.196000000    -5.603000000
H    -1.057000000    -1.311000000    -5.843000000
H    -0.846000000    -2.766000000    -6.200000000
O     3.160000000    -2.616000000    -5.074000000
H     2.832000000    -1.760000000    -5.349000000
H     3.513000000    -2.468000000    -4.197000000
O     0.541000000    -5.817000000     5.182000000
H     0.539000000    -6.026000000     6.117000000
H    -0.322000000    -5.437000000     5.020000000
O     4.491000000    -0.916000000    -0.380000000
H     3.785000000    -1.245000000     0.175000000
H     4.204000000    -0.040000000    -0.639000000
O    -6.419000000     2.340000000    -0.592000000
H    -6.184000000     2.506000000    -1.505000000
H    -6.272000000     3.176000000    -0.151000000
O    -3.314000000     5.631000000    -0.769000000
H    -4.166000000     5.850000000    -1.147000000
H    -3.508000000     4.961000000    -0.113000000
O     4.156000000    -2.529000000    -2.489000000
H     3.874000000    -3.281000000    -1.969000000
H     4.353000000    -1.851000000    -1.843000000
O     1.086000000    -4.613000000    -4.653000000
H     1.532000000    -3.772000000    -4.751000000
H     0.155000000    -4.392000000    -4.647000000
O    -0.909000000     7.540000000    -0.626000000
H    -1.629000000     6.930000000    -0.466000000
H    -1.232000000     8.115000000    -1.320000000
O     5.691000000     1.365000000     4.111000000
H     5.798000000     1.432000000     3.162000000
H     4.968000000     0.749000000     4.228000000
O     0.043000000    -4.615000000    -1.094000000
H     0.934000000    -4.373000000    -0.842000000
H    -0.004000000    -5.558000000    -0.934000000
O    -5.136000000    -0.719000000    -1.125000000
H    -5.307000000    -0.167000000    -0.362000000
H    -5.578000000    -0.272000000    -1.848000000
O     2.870000000    -4.439000000    -0.472000000
H     3.785000000    -4.712000000    -0.540000000
H     2.823000000    -3.963000000     0.357000000
O    -4.980000000    -0.613000000    -5.724000000
H    -5.344000000    -0.374000000    -4.872000000
H    -4.135000000    -0.164000000    -5.758000000
