158
-2995.27200
C     1.417000000    -0.049000000    -0.542000000
H     2.343000000     0.021000000    -1.107000000
C     0.355000000     0.734000000    -1.020000000
H     0.583000000     1.366000000    -1.876000000
C    -0.883000000     0.726000000    -0.407000000
H    -1.561000000     1.385000000    -0.762000000
C    -1.134000000    -0.169000000     0.639000000
H    -2.108000000    -0.261000000     1.113000000
C    -0.095000000    -0.934000000     1.065000000
H    -0.334000000    -1.633000000     1.863000000
C     1.167000000    -0.936000000     0.489000000
C     2.286000000    -1.657000000     1.209000000
O     2.205000000    -1.950000000     2.352000000
O     3.349000000    -1.827000000     0.653000000
O     3.096000000    -4.358000000     3.108000000
H     3.076000000    -4.158000000     4.044000000
H     2.907000000    -3.522000000     2.682000000
O     3.633000000     4.252000000    -0.951000000
H     3.389000000     4.307000000    -1.875000000
H     2.806000000     4.348000000    -0.478000000
O     3.467000000    -4.453000000     0.096000000
H     2.884000000    -4.763000000     0.790000000
H     3.561000000    -3.515000000     0.264000000
O    -3.503000000     4.026000000    -5.507000000
H    -4.409000000     3.883000000    -5.233000000
H    -3.305000000     3.283000000    -6.077000000
O     0.404000000    -6.002000000     3.205000000
H     0.922000000    -5.216000000     3.035000000
H     0.332000000    -6.040000000     4.159000000
O     4.285000000    -0.194000000     3.063000000
H     3.835000000     0.401000000     2.463000000
H     3.770000000    -1.000000000     3.032000000
O     2.350000000     1.778000000     1.924000000
H     2.055000000     2.658000000     2.156000000
H     1.698000000     1.196000000     2.313000000
O     4.725000000     1.905000000     0.333000000
H     3.830000000     1.684000000     0.590000000
H     4.658000000     2.788000000    -0.032000000
O     1.184000000     0.009000000     4.072000000
H     1.858000000    -0.102000000     4.742000000
H     1.287000000    -0.751000000     3.500000000
O    -4.966000000    -3.393000000     3.668000000
H    -5.034000000    -2.501000000     4.006000000
H    -4.793000000    -3.283000000     2.733000000
O    -1.823000000    -3.868000000     0.317000000
H    -1.365000000    -3.384000000    -0.370000000
H    -1.635000000    -4.787000000     0.129000000
O    -1.889000000     2.155000000     3.651000000
H    -2.414000000     2.723000000     3.087000000
H    -0.986000000     2.311000000     3.373000000
O    -4.213000000    -0.073000000     3.434000000
H    -4.861000000    -0.546000000     2.912000000
H    -3.698000000     0.415000000     2.791000000
O    -0.864000000    -2.354000000    -1.504000000
H    -0.459000000    -2.421000000    -2.369000000
H    -0.606000000    -1.490000000    -1.185000000
O    -4.255000000     1.568000000     5.733000000
H    -4.015000000     1.020000000     4.986000000
H    -3.694000000     2.340000000     5.654000000
O    -1.769000000     3.582000000    -2.678000000
H    -2.428000000     3.368000000    -2.018000000
H    -2.268000000     3.967000000    -3.399000000
O     0.581000000    -2.660000000    -4.072000000
H     0.555000000    -1.703000000    -4.092000000
H     1.026000000    -2.905000000    -4.883000000
O     1.179000000    -0.130000000    -5.000000000
H     1.279000000     0.569000000    -5.646000000
H     0.357000000    -0.560000000    -5.237000000
O    -4.701000000    -3.671000000    -2.441000000
H    -4.244000000    -2.872000000    -2.703000000
H    -5.507000000    -3.361000000    -2.028000000
O    -2.344000000     5.718000000     0.570000000
H    -3.219000000     5.857000000     0.933000000
H    -2.429000000     5.952000000    -0.354000000
O    -1.414000000     0.016000000     5.460000000
H    -0.894000000    -0.515000000     4.856000000
H    -1.587000000     0.825000000     4.979000000
O    -0.555000000    -3.413000000     5.829000000
H    -0.889000000    -3.352000000     4.934000000
H    -1.335000000    -3.347000000     6.380000000
O     3.462000000    -4.155000000     5.738000000
H     4.125000000    -4.789000000     6.011000000
H     3.422000000    -3.524000000     6.457000000
O     3.733000000    -6.900000000     3.609000000
H     3.828000000    -7.317000000     2.753000000
H     3.271000000    -6.082000000     3.428000000
O     0.976000000     4.153000000    -0.001000000
H     0.301000000     4.461000000    -0.606000000
H     0.706000000     3.263000000     0.226000000
O    -6.787000000     1.682000000     2.363000000
H    -7.409000000     1.270000000     1.763000000
H    -5.941000000     1.604000000     1.921000000
O     4.217000000    -3.303000000    -3.902000000
H     4.101000000    -2.677000000    -3.187000000
H     4.048000000    -4.156000000    -3.503000000
O     0.531000000     2.760000000    -4.021000000
H     0.371000000     2.323000000    -4.857000000
H    -0.341000000     2.892000000    -3.649000000
O     6.758000000    -1.768000000     3.533000000
H     6.344000000    -2.616000000     3.691000000
H     6.030000000    -1.179000000     3.335000000
O     6.385000000    -4.231000000    -2.047000000
H     6.341000000    -3.936000000    -1.137000000
H     6.981000000    -3.613000000    -2.470000000
O     6.151000000    -0.112000000    -0.558000000
H     6.630000000     0.418000000    -1.195000000
H     5.609000000     0.518000000    -0.082000000
O     2.651000000     4.405000000    -3.491000000
H     1.876000000     3.844000000    -3.480000000
H     2.557000000     4.929000000    -4.287000000
O     3.418000000     0.396000000    -3.815000000
H     3.326000000    -0.151000000    -3.035000000
H     2.590000000     0.288000000    -4.283000000
O     5.623000000    -5.199000000     1.955000000
H     4.738000000    -5.258000000     2.315000000
H     5.501000000    -4.831000000     1.080000000
O     0.802000000    -4.681000000    -2.284000000
H     0.934000000    -4.109000000    -3.040000000
H     1.123000000    -4.173000000    -1.539000000
O    -4.172000000     1.317000000    -4.245000000
H    -3.592000000     1.422000000    -4.999000000
H    -5.045000000     1.513000000    -4.585000000
O    -3.722000000     3.699000000     2.218000000
H    -3.955000000     3.265000000     1.397000000
H    -4.405000000     4.359000000     2.342000000
O    -4.523000000    -4.156000000     0.947000000
H    -3.658000000    -3.984000000     0.575000000
H    -4.438000000    -5.011000000     1.367000000
O    -4.277000000     1.084000000     0.854000000
H    -4.246000000     0.177000000     0.548000000
H    -4.371000000     1.602000000     0.055000000
O     4.155000000    -1.633000000    -1.885000000
H     3.880000000    -1.727000000    -0.973000000
H     5.011000000    -1.209000000    -1.834000000
O    -1.780000000     6.622000000    -1.932000000
H    -0.832000000     6.490000000    -1.901000000
H    -1.993000000     6.605000000    -2.865000000
O     4.133000000    -5.831000000    -2.320000000
H     5.030000000    -5.505000000    -2.249000000
H     3.678000000    -5.445000000    -1.571000000
O    -1.443000000    -3.681000000     3.181000000
H    -1.596000000    -3.564000000     2.243000000
H    -1.246000000    -4.613000000     3.277000000
O    -4.321000000     2.489000000    -1.565000000
H    -5.107000000     3.033000000    -1.606000000
H    -4.287000000     2.052000000    -2.416000000
O     4.886000000     2.752000000    -4.008000000
H     4.217000000     3.429000000    -3.904000000
H     4.391000000     1.935000000    -4.066000000
O    -3.691000000    -1.482000000    -0.499000000
H    -3.305000000    -1.155000000    -1.312000000
H    -3.260000000    -2.324000000    -0.351000000
O     5.983000000    -2.674000000     0.567000000
H     6.247000000    -1.795000000     0.296000000
H     5.062000000    -2.583000000     0.812000000
O    -3.275000000    -1.197000000    -3.374000000
H    -2.443000000    -0.874000000    -3.720000000
H    -3.921000000    -0.550000000    -3.659000000
