158
-3048.93009
C     1.214000000    -0.872000000    -0.153000000
H     2.085000000    -1.471000000    -0.408000000
C     0.997000000     0.322000000    -0.854000000
H     1.600000000     0.739000000    -1.657000000
C    -0.174000000     1.059000000    -0.587000000
H    -0.461000000     1.876000000    -1.196000000
C    -1.048000000     0.630000000     0.418000000
H    -1.929000000     1.230000000     0.635000000
C    -0.807000000    -0.495000000     1.152000000
H    -1.556000000    -0.898000000     1.828000000
C     0.336000000    -1.269000000     0.876000000
C     0.577000000    -2.592000000     1.543000000
O    -0.226000000    -3.044000000     2.297000000
O     1.619000000    -3.207000000     1.372000000
O     1.272000000    -3.837000000     4.306000000
H     1.362000000    -2.970000000     4.701000000
H     0.825000000    -3.677000000     3.475000000
O     2.932000000     3.200000000    -2.233000000
H     3.349000000     2.552000000    -2.800000000
H     2.068000000     3.339000000    -2.622000000
O     1.528000000    -5.554000000     0.089000000
H     2.232000000    -6.080000000     0.470000000
H     1.672000000    -4.674000000     0.437000000
O    -1.166000000    -5.460000000     2.234000000
H    -0.874000000    -4.549000000     2.256000000
H    -1.240000000    -5.710000000     3.155000000
O     3.234000000    -1.508000000     2.948000000
H     2.600000000    -1.556000000     3.663000000
H     2.872000000    -2.076000000     2.268000000
O     0.803000000     1.656000000     2.740000000
H     0.513000000     2.562000000     2.853000000
H     0.239000000     1.309000000     2.048000000
O     3.297000000     1.782000000     0.203000000
H     2.548000000     1.378000000     0.643000000
H     2.932000000     2.151000000    -0.601000000
O    -1.503000000    -2.409000000     4.730000000
H    -2.352000000    -2.797000000     4.941000000
H    -1.224000000    -2.861000000     3.934000000
O    -2.277000000     0.483000000     4.572000000
H    -1.981000000    -0.420000000     4.693000000
H    -1.883000000     0.963000000     5.300000000
O     5.409000000     0.600000000    -3.761000000
H     6.035000000     0.864000000    -4.436000000
H     4.618000000     1.103000000    -3.958000000
O    -2.319000000     1.993000000    -5.688000000
H    -2.235000000     2.666000000    -5.011000000
H    -1.985000000     2.410000000    -6.482000000
O    -2.791000000    -3.127000000     0.036000000
H    -2.614000000    -2.201000000    -0.131000000
H    -2.006000000    -3.580000000    -0.273000000
O    -3.122000000     3.897000000     2.654000000
H    -3.470000000     3.851000000     1.764000000
H    -2.176000000     3.986000000     2.537000000
O    -5.345000000    -1.316000000     1.591000000
H    -5.804000000    -1.094000000     0.781000000
H    -4.938000000    -0.496000000     1.868000000
O     6.390000000    -2.722000000    -2.997000000
H     6.204000000    -2.305000000    -2.155000000
H     6.949000000    -2.095000000    -3.456000000
O    -2.666000000    -1.837000000    -3.213000000
H    -3.355000000    -2.293000000    -2.730000000
H    -2.313000000    -2.498000000    -3.808000000
O    -2.565000000     3.907000000    -3.624000000
H    -2.049000000     4.492000000    -3.069000000
H    -3.117000000     3.421000000    -3.011000000
O     1.593000000    -2.961000000    -3.259000000
H     1.143000000    -3.805000000    -3.218000000
H     2.512000000    -3.187000000    -3.406000000
O    -1.159000000     0.252000000    -4.044000000
H    -1.622000000    -0.479000000    -3.635000000
H    -1.761000000     0.573000000    -4.715000000
O    -3.469000000     5.942000000    -1.059000000
H    -3.025000000     6.025000000    -1.903000000
H    -4.322000000     5.564000000    -1.273000000
O    -4.792000000     1.296000000     3.400000000
H    -4.107000000     0.983000000     3.991000000
H    -4.394000000     2.037000000     2.943000000
O     1.690000000    -1.312000000     5.241000000
H     2.065000000    -1.244000000     6.119000000
H     0.756000000    -1.140000000     5.365000000
O     1.083000000    -8.136000000     2.291000000
H     1.832000000    -7.992000000     1.713000000
H     0.871000000    -7.266000000     2.630000000
O    -0.669000000     5.570000000    -2.236000000
H    -0.270000000     6.194000000    -2.843000000
H    -0.166000000     4.764000000    -2.355000000
O     5.156000000    -5.498000000     0.961000000
H     5.021000000    -4.780000000     0.342000000
H     4.707000000    -5.215000000     1.757000000
O     0.744000000     4.290000000    -5.820000000
H     0.759000000     5.243000000    -5.907000000
H     1.211000000     3.972000000    -6.593000000
O     5.841000000    -1.837000000     3.798000000
H     4.990000000    -1.458000000     3.576000000
H     5.673000000    -2.777000000     3.869000000
O     0.083000000    -5.901000000     5.669000000
H    -0.319000000    -5.324000000     6.319000000
H     0.518000000    -5.307000000     5.058000000
O     4.030000000    -4.049000000    -3.690000000
H     4.704000000    -3.491000000    -3.303000000
H     4.395000000    -4.316000000    -4.533000000
O     4.517000000    -0.603000000    -1.350000000
H     4.747000000    -0.341000000    -2.242000000
H     4.373000000     0.223000000    -0.888000000
O     0.402000000     3.221000000    -3.506000000
H    -0.060000000     2.404000000    -3.692000000
H     0.478000000     3.653000000    -4.356000000
O    -2.851000000    -7.199000000     0.870000000
H    -2.721000000    -8.115000000     1.114000000
H    -2.141000000    -6.731000000     1.310000000
O     1.114000000     0.473000000    -5.594000000
H     0.818000000    -0.224000000    -6.180000000
H     0.876000000     0.168000000    -4.719000000
O     3.519000000    -5.234000000     3.258000000
H     3.353000000    -6.110000000     3.605000000
H     2.657000000    -4.820000000     3.230000000
O    -0.379000000    -4.133000000    -1.226000000
H     0.182000000    -3.528000000    -1.712000000
H     0.230000000    -4.671000000    -0.721000000
O     5.569000000     3.378000000     0.643000000
H     6.067000000     2.989000000     1.363000000
H     4.949000000     2.696000000     0.386000000
O    -4.808000000     2.907000000     0.513000000
H    -4.393000000     2.451000000    -0.219000000
H    -4.875000000     3.816000000     0.223000000
O     3.707000000     5.822000000    -1.353000000
H     4.378000000     5.663000000    -2.018000000
H     3.183000000     5.021000000    -1.345000000
O    -0.610000000     7.217000000    -0.064000000
H    -0.970000000     8.018000000    -0.447000000
H    -0.988000000     6.511000000    -0.587000000
O    -3.730000000     1.726000000    -2.201000000
H    -3.002000000     1.105000000    -2.217000000
H    -4.373000000     1.358000000    -2.807000000
O     7.218000000    -1.728000000    -0.159000000
H     7.099000000    -0.794000000    -0.333000000
H     6.371000000    -2.017000000     0.182000000
O     2.031000000    -5.619000000    -2.754000000
H     2.894000000    -5.345000000    -3.066000000
H     2.121000000    -5.653000000    -1.801000000
O     3.345000000    -7.510000000     0.947000000
H     4.043000000    -6.858000000     0.886000000
H     3.730000000    -8.308000000     0.584000000
O    -0.326000000     4.137000000     2.978000000
H    -0.201000000     4.329000000     3.907000000
H     0.093000000     4.868000000     2.524000000
O     4.432000000     0.650000000     3.968000000
H     4.077000000     0.352000000     4.806000000
H     3.904000000     0.198000000     3.311000000
O    -3.646000000    -3.325000000     2.611000000
H    -3.249000000    -3.517000000     1.762000000
H    -4.344000000    -2.700000000     2.413000000
O     3.275000000     1.925000000    -4.692000000
H     3.141000000     2.819000000    -5.008000000
H     2.507000000     1.444000000    -5.000000000
O     4.383000000    -3.007000000     0.017000000
H     4.392000000    -2.213000000    -0.517000000
H     3.543000000    -2.977000000     0.476000000
