158
-3022.62593
C     0.888000000    -0.350000000     1.102000000
H     1.521000000    -0.537000000     1.965000000
C     1.213000000     0.551000000     0.074000000
H     2.107000000     1.168000000     0.070000000
C     0.242000000     0.746000000    -0.920000000
H     0.473000000     1.457000000    -1.630000000
C    -0.900000000     0.016000000    -0.914000000
H    -1.542000000     0.217000000    -1.768000000
C    -1.200000000    -0.836000000     0.115000000
H    -2.151000000    -1.362000000     0.074000000
C    -0.325000000    -1.075000000     1.179000000
C    -0.561000000    -1.991000000     2.255000000
O    -1.594000000    -2.594000000     2.280000000
O     0.363000000    -2.295000000     3.006000000
O    -3.623000000    -6.523000000     3.022000000
H    -2.778000000    -6.680000000     2.600000000
H    -4.214000000    -6.306000000     2.300000000
O    -0.106000000    -2.350000000     5.897000000
H    -0.253000000    -2.560000000     4.975000000
H    -0.865000000    -2.715000000     6.351000000
O     1.923000000     4.460000000    -0.902000000
H     2.810000000     4.107000000    -0.973000000
H     1.665000000     4.644000000    -1.805000000
O    -0.634000000    -5.186000000     3.338000000
H    -0.973000000    -4.291000000     3.309000000
H    -0.711000000    -5.500000000     2.437000000
O     2.410000000    -0.145000000     4.706000000
H     2.478000000    -0.644000000     5.520000000
H     2.265000000    -0.807000000     4.030000000
O     5.383000000    -0.717000000     0.581000000
H     4.993000000     0.120000000     0.833000000
H     4.818000000    -1.045000000    -0.118000000
O    -3.044000000    -1.346000000     4.033000000
H    -3.486000000    -1.978000000     4.599000000
H    -2.826000000    -1.843000000     3.244000000
O    -3.359000000     0.974000000     2.848000000
H    -3.721000000     0.805000000     1.978000000
H    -3.309000000     0.110000000     3.258000000
O     4.027000000     5.752000000    -3.658000000
H     4.194000000     6.576000000    -4.115000000
H     3.097000000     5.581000000    -3.806000000
O     4.428000000     1.549000000    -1.530000000
H     4.878000000     1.759000000    -0.711000000
H     5.131000000     1.457000000    -2.173000000
O    -1.598000000    -5.721000000     5.983000000
H    -1.976000000    -4.975000000     6.448000000
H    -1.352000000    -5.370000000     5.127000000
O    -6.355000000    -2.396000000     2.904000000
H    -5.495000000    -2.140000000     2.572000000
H    -6.937000000    -2.319000000     2.148000000
O     3.706000000    -1.170000000    -1.464000000
H     3.892000000    -0.231000000    -1.456000000
H     3.232000000    -1.313000000    -2.283000000
O    -4.614000000     1.067000000     0.218000000
H    -4.376000000     0.501000000    -0.516000000
H    -3.981000000     1.784000000     0.184000000
O    -1.392000000     1.571000000    -4.052000000
H    -1.232000000     0.921000000    -4.736000000
H    -2.291000000     1.405000000    -3.768000000
O    -4.138000000    -2.429000000     1.580000000
H    -3.194000000    -2.586000000     1.548000000
H    -4.478000000    -2.852000000     0.792000000
O    -0.495000000     4.108000000    -4.615000000
H    -0.962000000     3.293000000    -4.431000000
H    -0.856000000     4.409000000    -5.449000000
O    -2.624000000     4.008000000    -2.239000000
H    -2.619000000     3.798000000    -1.305000000
H    -1.704000000     4.161000000    -2.455000000
O     1.597000000     6.718000000     0.341000000
H     1.358000000     7.263000000    -0.409000000
H     1.824000000     5.870000000    -0.041000000
O    -1.285000000     0.224000000     6.149000000
H    -0.471000000    -0.268000000     6.032000000
H    -1.831000000    -0.037000000     5.407000000
O    -5.200000000    -3.993000000    -0.607000000
H    -5.967000000    -4.535000000    -0.423000000
H    -5.497000000    -3.377000000    -1.276000000
O     1.130000000    -7.301000000     3.613000000
H     0.557000000    -6.537000000     3.664000000
H     0.644000000    -7.931000000     3.080000000
O    -2.789000000     3.349000000     0.483000000
H    -1.989000000     3.145000000     0.968000000
H    -3.305000000     3.884000000     1.086000000
O    -1.556000000    -1.026000000    -5.585000000
H    -1.462000000    -1.719000000    -6.239000000
H    -1.074000000    -1.349000000    -4.824000000
O     3.151000000    -5.363000000     3.341000000
H     3.926000000    -5.877000000     3.114000000
H     2.413000000    -5.907000000     3.063000000
O     1.187000000     5.619000000    -3.420000000
H     0.714000000     5.017000000    -3.994000000
H     0.863000000     6.486000000    -3.664000000
O     5.302000000    -2.007000000     4.156000000
H     5.579000000    -2.778000000     4.651000000
H     4.474000000    -2.267000000     3.753000000
O    -1.533000000    -4.449000000     0.436000000
H    -1.586000000    -3.635000000     0.937000000
H    -0.616000000    -4.715000000     0.508000000
O     5.163000000     0.668000000     4.500000000
H     4.257000000     0.638000000     4.805000000
H     5.423000000    -0.251000000     4.431000000
O     0.569000000     4.459000000     3.437000000
H     1.076000000     3.762000000     3.854000000
H     0.403000000     4.138000000     2.551000000
O    -0.068000000    -4.136000000    -2.646000000
H    -0.003000000    -3.456000000    -3.316000000
H     0.533000000    -3.852000000    -1.958000000
O    -0.148000000    -1.433000000    -3.254000000
H     0.695000000    -1.158000000    -3.615000000
H    -0.100000000    -1.196000000    -2.328000000
O     3.268000000     3.604000000    -5.515000000
H     2.536000000     3.221000000    -5.033000000
H     3.654000000     4.233000000    -4.905000000
O     1.993000000    -4.604000000     5.618000000
H     2.208000000    -4.784000000     4.703000000
H     1.652000000    -3.709000000     5.612000000
O    -2.977000000    -3.321000000    -2.832000000
H    -2.681000000    -2.824000000    -2.070000000
H    -2.220000000    -3.853000000    -3.080000000
O     2.628000000    -0.966000000    -3.898000000
H     2.726000000    -1.769000000    -4.409000000
H     2.984000000    -0.279000000    -4.462000000
O    -1.889000000     6.681000000     0.025000000
H    -1.297000000     7.251000000    -0.468000000
H    -1.309000000     6.068000000     0.477000000
O    -4.310000000    -0.470000000    -1.949000000
H    -3.936000000    -0.649000000    -2.812000000
H    -5.165000000    -0.900000000    -1.964000000
O     4.597000000     1.607000000     1.677000000
H     4.429000000     1.350000000     2.583000000
H     4.660000000     2.562000000     1.707000000
O    -4.043000000    -0.620000000    -4.672000000
H    -4.493000000    -1.456000000    -4.790000000
H    -3.207000000    -0.732000000    -5.123000000
O     1.531000000     1.909000000    -4.056000000
H     1.939000000     1.608000000    -3.244000000
H     0.617000000     2.068000000    -3.820000000
O     2.222000000     0.961000000    -7.748000000
H     1.732000000     0.181000000    -8.007000000
H     2.133000000     0.995000000    -6.795000000
O     1.175000000    -3.351000000    -0.315000000
H     1.800000000    -4.064000000    -0.186000000
H     1.422000000    -2.695000000     0.337000000
O     0.204000000     3.330000000     0.856000000
H     0.690000000     2.510000000     0.941000000
H     0.639000000     3.793000000     0.140000000
O    -3.711000000    -4.064000000     4.131000000
H    -3.993000000    -3.942000000     3.224000000
H    -3.448000000    -4.983000000     4.179000000
O     1.436000000     2.321000000     4.970000000
H     2.029000000     2.522000000     5.695000000
H     1.391000000     1.365000000     4.955000000
O    -3.886000000    -6.147000000     0.356000000
H    -4.336000000    -5.378000000     0.007000000
H    -2.991000000    -5.848000000     0.518000000
O     2.975000000    -2.694000000     3.146000000
H     3.136000000    -3.626000000     2.996000000
H     2.031000000    -2.634000000     3.288000000
