158
-3034.08672
C     0.690000000    -1.301000000     0.024000000
H     1.312000000    -2.190000000     0.103000000
C     1.172000000    -0.097000000    -0.439000000
H     2.160000000    -0.116000000    -0.892000000
C     0.473000000     1.056000000    -0.439000000
H     0.943000000     1.928000000    -0.927000000
C    -0.821000000     1.012000000     0.080000000
H    -1.457000000     1.890000000    -0.002000000
C    -1.324000000    -0.131000000     0.742000000
H    -2.305000000    -0.129000000     1.210000000
C    -0.549000000    -1.326000000     0.659000000
C    -1.158000000    -2.659000000     1.133000000
O    -2.085000000    -2.628000000     1.862000000
O    -0.485000000    -3.674000000     0.988000000
O     4.243000000    -2.150000000    -3.184000000
H     5.098000000    -2.523000000    -3.398000000
H     4.310000000    -1.231000000    -3.445000000
O     1.980000000     7.064000000    -2.257000000
H     2.774000000     7.095000000    -2.790000000
H     1.929000000     7.929000000    -1.851000000
O    -2.348000000    -5.657000000     6.155000000
H    -2.188000000    -4.816000000     5.726000000
H    -2.917000000    -6.131000000     5.548000000
O     6.557000000     2.619000000    -2.974000000
H     7.194000000     1.932000000    -3.171000000
H     6.261000000     2.424000000    -2.085000000
O    -0.340000000     6.491000000    -0.635000000
H     0.598000000     6.418000000    -0.812000000
H    -0.425000000     7.300000000    -0.130000000
O     0.472000000     7.519000000     2.167000000
H    -0.303000000     7.090000000     2.531000000
H     0.961000000     6.812000000     1.746000000
O    -5.698000000    -3.299000000     4.247000000
H    -5.619000000    -4.204000000     4.551000000
H    -6.640000000    -3.166000000     4.137000000
O     1.354000000     1.784000000     2.656000000
H     0.936000000     1.455000000     3.452000000
H     1.100000000     1.159000000     1.977000000
O     1.254000000    -5.585000000    -0.440000000
H     0.799000000    -4.904000000     0.056000000
H     1.074000000    -5.374000000    -1.356000000
O    -1.870000000    -3.639000000     4.303000000
H    -2.106000000    -3.157000000     3.511000000
H    -1.312000000    -4.352000000     3.993000000
O    -4.751000000     0.784000000     3.065000000
H    -4.204000000     1.392000000     2.568000000
H    -4.895000000     0.050000000     2.468000000
O     2.524000000     3.888000000    -4.139000000
H     2.774000000     3.640000000    -5.029000000
H     2.715000000     3.113000000    -3.611000000
O     3.932000000     0.020000000     1.582000000
H     4.794000000    -0.308000000     1.837000000
H     3.323000000    -0.663000000     1.863000000
O    -4.064000000    -6.674000000     4.101000000
H    -4.264000000    -7.380000000     3.486000000
H    -3.655000000    -5.997000000     3.563000000
O    -4.677000000    -1.832000000     1.839000000
H    -5.175000000    -2.339000000     2.480000000
H    -3.829000000    -2.272000000     1.792000000
O     5.448000000     0.964000000    -0.651000000
H     6.004000000     0.190000000    -0.560000000
H     4.960000000     1.006000000     0.171000000
O     4.931000000    -4.749000000     0.112000000
H     5.666000000    -4.137000000     0.135000000
H     4.715000000    -4.830000000    -0.817000000
O     2.385000000     6.168000000     0.625000000
H     2.450000000     5.262000000     0.928000000
H     2.923000000     6.195000000    -0.165000000
O     1.355000000     0.662000000    -3.717000000
H     1.926000000     0.948000000    -3.004000000
H     1.784000000    -0.117000000    -4.071000000
O     0.238000000    -4.498000000    -3.645000000
H     0.372000000    -3.627000000    -4.020000000
H    -0.665000000    -4.487000000    -3.330000000
O    -5.717000000    -1.693000000    -0.667000000
H    -5.346000000    -2.450000000    -1.122000000
H    -5.319000000    -1.719000000     0.203000000
O    -4.456000000     2.080000000    -0.995000000
H    -3.933000000     2.532000000    -1.657000000
H    -5.205000000     1.732000000    -1.478000000
O    -2.790000000     3.157000000    -2.862000000
H    -2.466000000     3.734000000    -3.554000000
H    -2.743000000     2.280000000    -3.241000000
O     0.031000000     5.614000000    -3.660000000
H     0.398000000     6.183000000    -2.984000000
H     0.613000000     4.854000000    -3.675000000
O     3.170000000     3.733000000     1.494000000
H     2.406000000     3.358000000     1.932000000
H     3.887000000     3.136000000     1.709000000
O    -3.624000000    -1.944000000     5.840000000
H    -4.371000000    -2.337000000     5.389000000
H    -2.858000000    -2.309000000     5.396000000
O    -0.409000000    -7.391000000     1.163000000
H     0.042000000    -8.102000000     0.707000000
H    -1.046000000    -7.065000000     0.527000000
O    -3.841000000     3.263000000     1.409000000
H    -3.337000000     4.010000000     1.086000000
H    -3.994000000     2.723000000     0.634000000
O     3.057000000    -6.234000000     1.827000000
H     3.538000000    -5.829000000     1.106000000
H     2.184000000    -6.397000000     1.471000000
O    -2.396000000     4.810000000    -0.501000000
H    -2.438000000     4.008000000    -1.021000000
H    -1.543000000     5.189000000    -0.712000000
O     3.319000000     2.071000000    -2.239000000
H     3.385000000     2.978000000    -1.939000000
H     3.877000000     1.578000000    -1.637000000
O    -1.803000000    -5.627000000    -0.310000000
H    -2.063000000    -5.098000000    -1.064000000
H    -1.296000000    -5.029000000     0.239000000
O    -3.162000000    -5.035000000     2.054000000
H    -3.269000000    -5.524000000     1.238000000
H    -2.631000000    -4.276000000     1.811000000
O    -1.661000000     5.865000000     2.197000000
H    -1.539000000     5.369000000     1.387000000
H    -2.200000000     5.297000000     2.747000000
O    -1.788000000     0.685000000    -3.753000000
H    -0.891000000     0.398000000    -3.583000000
H    -2.335000000    -0.015000000    -3.398000000
O     1.305000000    -6.738000000     4.847000000
H     1.466000000    -5.855000000     5.179000000
H     0.952000000    -6.602000000     3.967000000
O     0.067000000    -5.451000000     2.882000000
H    -0.121000000    -6.177000000     2.288000000
H    -0.088000000    -4.666000000     2.356000000
O    -2.371000000    -1.442000000    -1.901000000
H    -3.162000000    -1.150000000    -1.448000000
H    -1.661000000    -0.958000000    -1.479000000
O     3.983000000     6.374000000    -4.072000000
H     4.852000000     5.990000000    -3.954000000
H     3.391000000     5.623000000    -4.097000000
O     4.262000000     4.454000000    -0.933000000
H     4.267000000     4.144000000    -0.028000000
H     4.652000000     5.327000000    -0.889000000
O    -0.465000000     2.586000000    -5.328000000
H     0.467000000     2.613000000    -5.546000000
H    -0.530000000     1.926000000    -4.638000000
O    -2.393000000    -3.934000000    -3.035000000
H    -2.923000000    -3.873000000    -3.829000000
H    -2.316000000    -3.031000000    -2.728000000
O    -3.217000000     1.166000000     5.646000000
H    -3.547000000     1.160000000     4.747000000
H    -3.119000000     0.241000000     5.871000000
O     4.297000000    -4.957000000    -2.647000000
H     4.279000000    -5.335000000    -3.526000000
H     3.923000000    -4.083000000    -2.754000000
O     0.471000000     4.035000000     4.251000000
H     0.697000000     3.558000000     3.452000000
H     1.179000000     3.829000000     4.861000000
O     3.674000000    -4.347000000     4.101000000
H     3.217000000    -3.880000000     3.402000000
H     3.589000000    -5.272000000     3.866000000
O     4.000000000     0.201000000    -5.062000000
H     4.484000000     1.004000000    -4.866000000
H     3.661000000     0.336000000    -5.947000000
O     2.255000000    -2.183000000     2.765000000
H     1.387000000    -1.859000000     2.524000000
H     2.396000000    -1.851000000     3.652000000
