158
-3039.07589
C    -0.961000000     0.915000000     0.601000000
H    -1.640000000     1.493000000     1.222000000
C    -0.776000000    -0.406000000     0.974000000
H    -1.149000000    -0.857000000     1.890000000
C     0.131000000    -1.133000000     0.275000000
H     0.327000000    -2.166000000     0.639000000
C     0.927000000    -0.579000000    -0.672000000
H     1.583000000    -1.302000000    -1.151000000
C     0.669000000     0.714000000    -1.130000000
H     1.277000000     1.106000000    -1.941000000
C    -0.280000000     1.494000000    -0.485000000
C    -0.589000000     2.940000000    -0.859000000
O    -0.209000000     3.324000000    -1.923000000
O    -1.036000000     3.689000000     0.020000000
O     2.902000000    -5.331000000    -0.570000000
H     2.096000000    -5.294000000    -1.084000000
H     2.645000000    -5.026000000     0.301000000
O     1.769000000     0.513000000     3.947000000
H     1.285000000    -0.306000000     3.842000000
H     2.035000000     0.518000000     4.866000000
O    -0.922000000    -2.513000000    -4.241000000
H    -1.499000000    -1.766000000    -4.083000000
H    -0.977000000    -3.032000000    -3.438000000
O    -2.160000000    -0.465000000    -2.063000000
H    -1.390000000    -0.359000000    -1.505000000
H    -2.902000000    -0.295000000    -1.483000000
O     0.985000000     2.572000000    -4.390000000
H     0.264000000     2.784000000    -4.983000000
H     0.672000000     2.842000000    -3.527000000
O    -0.744000000    -2.961000000     6.146000000
H    -0.329000000    -2.556000000     6.907000000
H    -0.969000000    -3.844000000     6.437000000
O     2.937000000    -2.888000000     4.199000000
H     2.085000000    -2.458000000     4.120000000
H     2.830000000    -3.500000000     4.927000000
O     0.706000000    -4.768000000    -2.489000000
H    -0.127000000    -4.420000000    -2.171000000
H     0.555000000    -4.944000000    -3.417000000
O     1.451000000     5.656000000    -1.370000000
H     1.063000000     6.303000000    -1.959000000
H     1.261000000     4.813000000    -1.781000000
O     3.294000000     1.011000000     1.515000000
H     3.527000000     0.083000000     1.526000000
H     2.901000000     1.170000000     2.373000000
O    -4.313000000    -4.113000000    -0.964000000
H    -5.244000000    -4.190000000    -1.170000000
H    -4.293000000    -3.760000000    -0.074000000
O     4.038000000     4.639000000    -2.199000000
H     3.294000000     5.170000000    -1.915000000
H     3.954000000     3.824000000    -1.705000000
O    -1.804000000     0.791000000    -4.716000000
H    -2.059000000     0.621000000    -3.810000000
H    -2.554000000     0.500000000    -5.235000000
O    -1.595000000    -6.838000000    -3.327000000
H    -0.923000000    -6.160000000    -3.383000000
H    -1.411000000    -7.292000000    -2.505000000
O     5.016000000     0.318000000    -3.037000000
H     5.483000000     0.093000000    -2.232000000
H     5.233000000    -0.389000000    -3.644000000
O    -1.803000000    -3.861000000    -1.999000000
H    -2.696000000    -4.167000000    -1.843000000
H    -1.700000000    -3.112000000    -1.413000000
O    -1.815000000     3.691000000     2.820000000
H    -1.335000000     3.503000000     2.013000000
H    -1.352000000     3.195000000     3.495000000
O    -2.850000000    -2.721000000     3.855000000
H    -2.946000000    -1.879000000     3.409000000
H    -2.424000000    -2.506000000     4.684000000
O    -6.183000000     3.874000000     1.592000000
H    -5.684000000     3.459000000     2.296000000
H    -6.490000000     3.144000000     1.055000000
O     2.771000000     0.618000000    -4.501000000
H     3.420000000     0.649000000    -3.798000000
H     2.185000000     1.353000000    -4.318000000
O    -2.890000000     0.655000000     5.161000000
H    -2.093000000     1.164000000     5.010000000
H    -2.953000000     0.587000000     6.114000000
O    -2.120000000    -5.424000000     5.050000000
H    -1.849000000    -4.956000000     4.260000000
H    -1.624000000    -6.242000000     5.025000000
O    -2.974000000     7.230000000     2.436000000
H    -3.161000000     6.778000000     1.614000000
H    -2.533000000     8.037000000     2.170000000
O     5.343000000    -4.712000000     0.894000000
H     5.108000000    -3.794000000     0.760000000
H     4.898000000    -5.178000000     0.185000000
O     4.767000000    -2.339000000    -0.418000000
H     4.417000000    -2.814000000    -1.171000000
H     5.078000000    -1.510000000    -0.781000000
O    -3.707000000     3.487000000     0.255000000
H    -4.120000000     4.210000000     0.728000000
H    -2.785000000     3.736000000     0.194000000
O     3.145000000    -7.617000000     1.448000000
H     2.782000000    -6.849000000     1.888000000
H     4.088000000    -7.561000000     1.605000000
O    -3.919000000     5.111000000     3.946000000
H    -3.794000000     5.955000000     3.513000000
H    -3.269000000     4.536000000     3.542000000
O    -4.645000000    -3.451000000     1.695000000
H    -4.087000000    -3.429000000     2.472000000
H    -5.429000000    -2.964000000     1.950000000
O    -0.607000000     1.996000000     4.611000000
H     0.278000000     1.691000000     4.408000000
H    -0.477000000     2.703000000     5.244000000
O    -0.557000000    -7.854000000    -0.613000000
H    -1.113000000    -8.565000000    -0.294000000
H     0.329000000    -8.109000000    -0.355000000
O     4.848000000    -1.420000000     2.658000000
H     4.008000000    -1.746000000     2.982000000
H     4.917000000    -1.777000000     1.772000000
O    -0.800000000     2.714000000    -6.550000000
H    -1.509000000     3.345000000    -6.428000000
H    -1.106000000     1.922000000    -6.107000000
O     1.922000000    -2.264000000    -4.470000000
H     0.977000000    -2.270000000    -4.320000000
H     2.113000000    -1.372000000    -4.762000000
O    -1.323000000     4.470000000    -4.204000000
H    -1.150000000     4.194000000    -3.303000000
H    -0.757000000     5.230000000    -4.334000000
O     1.017000000     5.340000000     1.516000000
H     0.328000000     4.958000000     0.973000000
H     1.630000000     5.725000000     0.889000000
O     0.370000000    -1.757000000     4.174000000
H    -0.241000000    -2.108000000     4.822000000
H    -0.036000000    -1.954000000     3.330000000
O     4.193000000    -3.556000000    -2.869000000
H     3.335000000    -3.320000000    -3.221000000
H     4.176000000    -4.511000000    -2.817000000
O    -1.458000000     6.441000000    -1.279000000
H    -1.127000000     5.570000000    -1.061000000
H    -2.410000000     6.356000000    -1.231000000
O    -0.868000000     8.687000000     0.283000000
H    -0.874000000     7.856000000    -0.193000000
H    -1.449000000     9.256000000    -0.222000000
O    -4.152000000     6.723000000    -0.550000000
H    -4.939000000     6.337000000    -0.166000000
H    -4.450000000     7.552000000    -0.926000000
O     1.955000000    -5.498000000     2.405000000
H     1.891000000    -4.580000000     2.666000000
H     1.628000000    -5.986000000     3.161000000
O    -4.404000000     1.123000000    -0.782000000
H    -4.855000000     0.640000000    -0.090000000
H    -4.252000000     1.991000000    -0.408000000
O     2.954000000     2.934000000    -0.469000000
H     3.237000000     2.271000000     0.160000000
H     2.003000000     2.974000000    -0.365000000
O    -4.018000000     4.276000000    -3.924000000
H    -3.076000000     4.437000000    -3.886000000
H    -4.116000000     3.571000000    -4.564000000
O    -2.123000000    -6.271000000     0.946000000
H    -2.843000000    -5.738000000     0.609000000
H    -1.850000000    -6.804000000     0.199000000
O    -0.617000000    -4.094000000     2.620000000
H    -1.476000000    -3.672000000     2.579000000
H    -0.763000000    -4.968000000     2.259000000
O    -3.799000000    -0.462000000     2.742000000
H    -3.403000000     0.025000000     3.465000000
H    -4.670000000    -0.077000000     2.643000000
