158
-3005.13965
C    -0.113000000    -1.323000000    -0.589000000
H    -0.091000000    -2.225000000    -1.194000000
C     0.691000000    -0.296000000    -1.068000000
H     1.313000000    -0.337000000    -1.958000000
C     0.711000000     0.852000000    -0.371000000
H     1.140000000     1.711000000    -0.856000000
C    -0.097000000     1.070000000     0.708000000
H    -0.181000000     2.050000000     1.172000000
C    -0.883000000     0.059000000     1.236000000
H    -1.430000000     0.263000000     2.152000000
C    -0.876000000    -1.192000000     0.606000000
C    -1.604000000    -2.394000000     1.106000000
O    -1.960000000    -2.478000000     2.285000000
O    -1.982000000    -3.253000000     0.354000000
O     4.772000000    -1.152000000    -4.361000000
H     4.756000000    -0.732000000    -3.501000000
H     5.379000000    -0.621000000    -4.876000000
O     2.052000000    -1.120000000    -6.193000000
H     2.102000000    -0.265000000    -6.620000000
H     2.453000000    -0.982000000    -5.334000000
O    -0.653000000    -4.601000000     5.987000000
H    -0.763000000    -3.743000000     5.576000000
H    -0.639000000    -5.217000000     5.255000000
O     4.921000000    -0.139000000    -1.741000000
H     5.061000000    -0.987000000    -1.319000000
H     5.659000000     0.397000000    -1.450000000
O    -0.054000000     7.026000000     2.372000000
H    -0.598000000     7.245000000     1.615000000
H     0.485000000     6.292000000     2.075000000
O     2.796000000     1.816000000     2.001000000
H     2.949000000     1.233000000     2.744000000
H     1.895000000     2.119000000     2.117000000
O    -0.304000000    -5.166000000    -0.578000000
H    -0.917000000    -4.514000000    -0.238000000
H    -0.775000000    -5.586000000    -1.297000000
O    -1.204000000    -2.346000000     4.727000000
H    -1.553000000    -2.469000000     3.844000000
H    -0.669000000    -1.555000000     4.666000000
O    -5.118000000     1.437000000     4.386000000
H    -4.607000000     1.997000000     3.802000000
H    -4.919000000     0.546000000     4.099000000
O     0.193000000     5.108000000    -3.035000000
H    -0.116000000     4.250000000    -2.744000000
H     0.941000000     5.298000000    -2.469000000
O    -4.250000000    -1.172000000     3.468000000
H    -4.570000000    -1.996000000     3.102000000
H    -3.342000000    -1.354000000     3.711000000
O     3.682000000     2.878000000    -0.087000000
H     3.266000000     2.637000000     0.741000000
H     4.499000000     2.378000000    -0.098000000
O     3.107000000    -4.106000000    -1.908000000
H     3.143000000    -3.195000000    -2.199000000
H     2.543000000    -4.540000000    -2.548000000
O     1.676000000     4.965000000     1.938000000
H     1.700000000     4.610000000     2.827000000
H     2.573000000     4.874000000     1.619000000
O     1.364000000    -7.142000000    -1.876000000
H     0.909000000    -6.339000000    -2.130000000
H     0.822000000    -7.847000000    -2.229000000
O     2.898000000     2.095000000    -3.123000000
H     2.743000000     2.944000000    -2.709000000
H     3.836000000     1.943000000    -3.014000000
O    -1.671000000     3.035000000     6.732000000
H    -1.785000000     3.164000000     5.790000000
H    -2.209000000     2.270000000     6.936000000
O    -0.653000000    -3.138000000    -3.419000000
H    -0.986000000    -2.457000000    -4.003000000
H    -1.428000000    -3.451000000    -2.951000000
O    -4.622000000     0.434000000     0.987000000
H    -4.956000000     0.069000000     0.168000000
H    -4.704000000    -0.281000000     1.619000000
O     0.831000000     2.357000000    -4.952000000
H     1.558000000     2.169000000    -4.360000000
H     1.080000000     1.943000000    -5.778000000
O    -4.021000000     1.613000000    -2.052000000
H    -3.374000000     1.780000000    -2.738000000
H    -3.625000000     1.972000000    -1.257000000
O    -1.414000000     7.265000000    -3.319000000
H    -0.786000000     7.941000000    -3.065000000
H    -0.905000000     6.454000000    -3.325000000
O     4.299000000     5.516000000     1.346000000
H     4.823000000     4.825000000     1.750000000
H     4.941000000     6.151000000     1.030000000
O     1.031000000    -0.246000000     4.195000000
H     0.684000000     0.068000000     5.029000000
H     0.697000000     0.375000000     3.547000000
O    -3.842000000    -3.667000000     6.649000000
H    -3.766000000    -4.621000000     6.662000000
H    -2.937000000    -3.354000000     6.647000000
O    -4.002000000    -5.716000000     1.712000000
H    -3.994000000    -5.872000000     0.768000000
H    -4.169000000    -4.778000000     1.799000000
O    -3.918000000     2.709000000     2.456000000
H    -4.112000000     1.981000000     1.866000000
H    -4.235000000     3.484000000     1.992000000
O     1.830000000    -3.821000000     0.732000000
H     2.661000000    -3.689000000     0.274000000
H     1.201000000    -4.009000000     0.035000000
O    -2.798000000     4.153000000    -0.715000000
H    -2.929000000     4.573000000     0.135000000
H    -1.964000000     4.502000000    -1.029000000
O     2.167000000     5.087000000    -1.098000000
H     2.175000000     5.678000000    -0.345000000
H     2.751000000     4.371000000    -0.846000000
O    -4.985000000    -4.837000000    -0.709000000
H    -5.869000000    -5.129000000    -0.934000000
H    -4.620000000    -4.520000000    -1.535000000
O    -3.167000000     4.232000000    -3.543000000
H    -3.131000000     4.359000000    -2.595000000
H    -3.431000000     5.084000000    -3.890000000
O    -4.545000000    -3.037000000     1.354000000
H    -4.729000000    -3.689000000     0.678000000
H    -3.606000000    -2.870000000     1.277000000
O    -2.046000000     3.904000000     4.125000000
H    -2.533000000     3.480000000     3.419000000
H    -2.518000000     4.722000000     4.283000000
O    -0.888000000     2.495000000    -2.687000000
H    -0.353000000     2.461000000    -3.480000000
H    -0.527000000     1.810000000    -2.124000000
O     0.992000000    -4.596000000     3.317000000
H     0.275000000    -5.225000000     3.238000000
H     1.128000000    -4.274000000     2.426000000
O    -1.767000000    -5.474000000     3.234000000
H    -2.472000000    -5.779000000     2.663000000
H    -1.538000000    -4.610000000     2.891000000
O    -3.726000000    -1.424000000    -2.653000000
H    -4.551000000    -1.245000000    -2.202000000
H    -3.422000000    -0.565000000    -2.946000000
O     4.434000000     6.520000000    -2.144000000
H     5.018000000     5.880000000    -2.549000000
H     3.683000000     6.005000000    -1.848000000
O     5.437000000     2.854000000    -5.331000000
H     5.417000000     2.999000000    -4.385000000
H     5.277000000     3.718000000    -5.710000000
O    -1.378000000    -6.275000000    -2.619000000
H    -2.047000000    -5.627000000    -2.403000000
H    -1.820000000    -6.892000000    -3.202000000
O    -2.643000000    -3.916000000    -2.030000000
H    -2.904000000    -3.050000000    -2.343000000
H    -2.434000000    -3.784000000    -1.105000000
O     0.729000000    -7.157000000     1.075000000
H     1.568000000    -7.388000000     0.676000000
H     0.466000000    -6.350000000     0.631000000
O     1.425000000    -5.010000000    -3.872000000
H     1.188000000    -5.285000000    -4.757000000
H     0.663000000    -4.523000000    -3.560000000
O     0.522000000     2.569000000     3.431000000
H    -0.125000000     3.213000000     3.718000000
H     1.234000000     2.644000000     4.067000000
O    -2.726000000     0.949000000    -4.635000000
H    -2.715000000     1.895000000    -4.491000000
H    -1.928000000     0.773000000    -5.134000000
O     2.476000000    -2.627000000     4.581000000
H     1.976000000    -1.838000000     4.373000000
H     1.945000000    -3.345000000     4.238000000
O     3.010000000    -0.963000000     1.816000000
H     2.176000000    -1.369000000     1.580000000
H     3.009000000    -0.126000000     1.352000000
