158
-3036.36310
C    -0.115000000    -0.831000000     1.170000000
H    -0.065000000    -1.395000000     2.098000000
C     0.980000000    -0.821000000     0.323000000
H     1.910000000    -1.375000000     0.418000000
C     0.923000000    -0.012000000    -0.784000000
H     1.657000000    -0.081000000    -1.563000000
C    -0.131000000     0.859000000    -0.968000000
H    -0.117000000     1.519000000    -1.831000000
C    -1.197000000     0.829000000    -0.122000000
H    -2.010000000     1.504000000    -0.379000000
C    -1.246000000    -0.053000000     0.978000000
C    -2.396000000    -0.085000000     2.023000000
O    -2.994000000     0.949000000     2.253000000
O    -2.456000000    -0.975000000     2.859000000
O     6.425000000    -1.863000000    -4.587000000
H     5.606000000    -1.478000000    -4.897000000
H     6.864000000    -2.167000000    -5.382000000
O     6.002000000     0.961000000    -1.646000000
H     5.886000000     1.530000000    -0.885000000
H     5.889000000     0.075000000    -1.302000000
O    -2.577000000     5.129000000    -0.176000000
H    -2.992000000     4.430000000     0.329000000
H    -3.279000000     5.762000000    -0.330000000
O    -1.138000000     2.669000000     5.957000000
H    -1.190000000     1.960000000     6.598000000
H    -1.330000000     3.461000000     6.460000000
O    -1.845000000    -4.010000000     3.538000000
H    -1.533000000    -3.112000000     3.649000000
H    -2.209000000    -4.029000000     2.653000000
O     1.889000000     0.201000000     5.922000000
H     1.884000000     1.156000000     5.866000000
H     2.676000000    -0.064000000     5.446000000
O    -3.885000000     2.867000000     0.856000000
H    -4.033000000     3.462000000     1.591000000
H    -3.544000000     2.069000000     1.259000000
O     5.380000000    -1.452000000    -0.111000000
H     6.266000000    -1.568000000     0.234000000
H     4.879000000    -1.106000000     0.627000000
O    -7.305000000     2.148000000     3.904000000
H    -6.602000000     1.637000000     3.502000000
H    -7.036000000     2.249000000     4.817000000
O    -0.505000000     1.713000000     3.574000000
H    -0.594000000     2.165000000     4.412000000
H    -1.402000000     1.634000000     3.248000000
O     4.263000000     0.781000000    -3.677000000
H     4.893000000     0.693000000    -2.961000000
H     3.561000000     1.321000000    -3.313000000
O     2.559000000     2.864000000    -2.778000000
H     2.457000000     2.924000000    -1.828000000
H     3.227000000     3.516000000    -2.990000000
O     0.134000000     4.924000000    -0.954000000
H     0.177000000     4.183000000    -1.558000000
H    -0.765000000     4.913000000    -0.625000000
O    -8.238000000     1.433000000     0.943000000
H    -7.334000000     1.694000000     1.119000000
H    -8.174000000     0.516000000     0.677000000
O    -0.360000000    -1.367000000    -4.558000000
H    -0.010000000    -0.588000000    -4.127000000
H    -1.180000000    -1.073000000    -4.955000000
O    -2.076000000     5.416000000     4.335000000
H    -1.233000000     5.221000000     3.927000000
H    -2.221000000     4.691000000     4.943000000
O    -0.264000000    -4.173000000    -4.481000000
H    -0.520000000    -4.353000000    -5.386000000
H    -0.493000000    -3.253000000    -4.346000000
O     2.564000000     3.401000000    -0.072000000
H     2.699000000     2.663000000     0.522000000
H     1.735000000     3.787000000     0.211000000
O     4.082000000    -1.096000000     2.265000000
H     3.466000000    -0.367000000     2.194000000
H     3.573000000    -1.801000000     2.666000000
O    -4.423000000     0.802000000    -3.424000000
H    -5.288000000     0.687000000    -3.032000000
H    -4.590000000     1.279000000    -4.237000000
O     0.171000000    -3.557000000     6.933000000
H    -0.414000000    -4.298000000     6.775000000
H    -0.096000000    -2.900000000     6.290000000
O    -3.455000000    -1.734000000     5.497000000
H    -3.261000000    -1.250000000     4.695000000
H    -4.019000000    -2.454000000     5.212000000
O     5.664000000     2.846000000     0.276000000
H     4.941000000     3.380000000    -0.053000000
H     5.572000000     2.878000000     1.228000000
O     2.292000000    -5.128000000    -4.621000000
H     2.830000000    -4.627000000    -5.233000000
H     1.623000000    -4.510000000    -4.328000000
O     4.119000000    -4.079000000    -0.557000000
H     4.603000000    -3.321000000    -0.883000000
H     4.124000000    -4.699000000    -1.287000000
O     2.407000000     1.083000000     2.815000000
H     2.778000000     1.623000000     3.514000000
H     1.509000000     1.400000000     2.720000000
O    -5.825000000    -4.617000000     3.667000000
H    -5.489000000    -3.843000000     3.215000000
H    -5.529000000    -4.513000000     4.572000000
O     1.488000000    -2.205000000    -6.564000000
H     0.760000000    -2.152000000    -5.944000000
H     2.236000000    -1.848000000    -6.086000000
O     3.836000000    -1.158000000    -5.572000000
H     3.927000000    -0.479000000    -6.240000000
H     3.739000000    -0.676000000    -4.751000000
O     2.178000000    -2.940000000     3.199000000
H     2.095000000    -3.808000000     2.805000000
H     1.413000000    -2.460000000     2.883000000
O    -2.401000000     2.775000000    -3.663000000
H    -2.656000000     1.861000000    -3.789000000
H    -3.227000000     3.239000000    -3.530000000
O     2.795000000    -3.807000000     5.668000000
H     2.465000000    -3.235000000     4.975000000
H     2.178000000    -3.690000000     6.390000000
O    -3.144000000    -3.608000000    -2.622000000
H    -2.749000000    -4.424000000    -2.315000000
H    -2.526000000    -2.927000000    -2.355000000
O    -3.670000000     1.825000000     4.502000000
H    -3.445000000     1.471000000     3.641000000
H    -2.837000000     1.856000000     4.973000000
O    -4.175000000     4.736000000     2.677000000
H    -4.938000000     5.307000000     2.765000000
H    -3.516000000     5.126000000     3.251000000
O    -4.607000000    -2.530000000     2.463000000
H    -4.413000000    -2.896000000     1.601000000
H    -3.784000000    -2.131000000     2.745000000
O     0.587000000     1.767000000    -4.312000000
H     1.277000000     2.214000000    -3.822000000
H     0.047000000     2.475000000    -4.664000000
O    -0.442000000     4.424000000    -4.382000000
H    -0.741000000     4.854000000    -5.183000000
H    -1.232000000     4.029000000    -4.013000000
O     2.460000000    -5.184000000     1.303000000
H     2.412000000    -6.041000000     0.881000000
H     2.948000000    -4.640000000     0.684000000
O    -0.164000000    -1.649000000     4.977000000
H    -0.961000000    -1.251000000     4.627000000
H     0.278000000    -0.935000000     5.437000000
O    -5.348000000     3.838000000    -1.039000000
H    -4.685000000     3.444000000    -0.472000000
H    -4.987000000     3.758000000    -1.922000000
O    -2.225000000    -3.355000000     0.934000000
H    -1.909000000    -2.511000000     0.611000000
H    -2.857000000    -3.642000000     0.275000000
O    -1.419000000    -1.742000000    -1.609000000
H    -0.587000000    -1.858000000    -2.068000000
H    -1.449000000    -0.809000000    -1.400000000
O    -2.543000000     0.295000000     7.237000000
H    -2.726000000    -0.457000000     6.673000000
H    -3.359000000     0.795000000     7.241000000
O    -4.577000000    -3.555000000    -0.323000000
H    -4.456000000    -3.669000000    -1.265000000
H    -5.515000000    -3.392000000    -0.220000000
O    -5.684000000     0.041000000     2.997000000
H    -4.845000000     0.439000000     3.232000000
H    -5.449000000    -0.803000000     2.611000000
O    -5.534000000     3.924000000     5.576000000
H    -5.109000000     4.067000000     6.422000000
H    -4.879000000     3.462000000     5.053000000
O    -0.038000000     0.839000000    -7.096000000
H    -0.143000000     0.436000000    -6.234000000
H    -0.180000000     1.773000000    -6.943000000
