158
-3062.49656
C     0.438000000    -0.403000000     1.370000000
H     0.848000000    -0.694000000     2.334000000
C     1.190000000    -0.618000000     0.174000000
H     2.231000000    -0.907000000     0.295000000
C     0.640000000    -0.230000000    -1.034000000
H     1.126000000    -0.367000000    -1.971000000
C    -0.584000000     0.438000000    -1.081000000
H    -0.967000000     0.743000000    -2.052000000
C    -1.332000000     0.555000000     0.068000000
H    -2.360000000     0.877000000    -0.076000000
C    -0.851000000     0.204000000     1.368000000
C    -1.624000000     0.373000000     2.655000000
O    -2.728000000     0.906000000     2.506000000
O    -1.266000000    -0.075000000     3.765000000
O     3.905000000    -4.335000000    -5.836000000
H     3.538000000    -3.786000000    -5.143000000
H     4.842000000    -4.137000000    -5.827000000
O     6.220000000    -2.418000000    -1.562000000
H     7.013000000    -2.070000000    -1.154000000
H     5.927000000    -1.721000000    -2.149000000
O    -2.677000000     3.638000000    -1.927000000
H    -3.453000000     4.144000000    -2.167000000
H    -2.732000000     3.553000000    -0.975000000
O    -2.000000000    -5.170000000     4.104000000
H    -1.442000000    -5.843000000     4.494000000
H    -1.606000000    -4.343000000     4.381000000
O     0.702000000    -3.540000000     2.681000000
H     0.197000000    -3.103000000     3.367000000
H     0.041000000    -3.909000000     2.095000000
O     0.008000000    -2.703000000     7.150000000
H    -0.103000000    -1.756000000     7.227000000
H     0.956000000    -2.836000000     7.175000000
O    -1.023000000    -3.835000000    -5.941000000
H    -1.898000000    -3.918000000    -6.322000000
H    -0.429000000    -4.078000000    -6.651000000
O    -2.496000000     3.306000000     1.280000000
H    -2.144000000     3.768000000     2.041000000
H    -2.546000000     2.391000000     1.558000000
O    -5.727000000     2.563000000     4.648000000
H    -5.889000000     1.838000000     5.251000000
H    -5.613000000     2.144000000     3.795000000
O     0.815000000    -0.179000000     5.415000000
H     0.145000000    -0.117000000     6.096000000
H     0.349000000     0.010000000     4.601000000
O     4.752000000     1.795000000    -3.157000000
H     4.039000000     1.828000000    -2.519000000
H     5.149000000     2.665000000    -3.117000000
O     1.966000000     2.427000000    -1.480000000
H     1.444000000     1.763000000    -1.031000000
H     1.461000000     3.234000000    -1.384000000
O     0.146000000     4.341000000    -0.457000000
H    -0.299000000     3.510000000    -0.292000000
H    -0.298000000     4.968000000     0.113000000
O     0.300000000    -1.398000000    -4.124000000
H     0.604000000    -0.522000000    -3.886000000
H    -0.581000000    -1.454000000    -3.754000000
O    -0.930000000     3.947000000     3.356000000
H    -1.037000000     3.349000000     4.096000000
H     0.016000000     3.983000000     3.212000000
O    -1.264000000    -5.601000000    -3.907000000
H    -0.994000000    -5.299000000    -4.774000000
H    -1.447000000    -4.798000000    -3.420000000
O     3.250000000     2.710000000     1.393000000
H     3.173000000     1.803000000     1.688000000
H     4.180000000     2.820000000     1.197000000
O     3.737000000     0.535000000     3.091000000
H     3.708000000    -0.389000000     2.843000000
H     2.940000000     0.671000000     3.603000000
O    -5.327000000     0.669000000     6.998000000
H    -4.629000000     0.017000000     7.060000000
H    -5.014000000     1.406000000     7.523000000
O    -5.671000000     1.028000000    -0.821000000
H    -6.397000000     0.421000000    -0.963000000
H    -5.086000000     0.880000000    -1.564000000
O    -3.035000000    -0.463000000     5.784000000
H    -2.564000000    -0.269000000     4.974000000
H    -3.503000000    -1.278000000     5.601000000
O     2.456000000    -6.369000000    -3.979000000
H     2.428000000    -5.445000000    -3.731000000
H     1.829000000    -6.794000000    -3.393000000
O    -0.508000000     2.351000000    -6.771000000
H    -1.071000000     2.624000000    -6.046000000
H     0.367000000     2.648000000    -6.520000000
O    -7.108000000    -0.180000000     5.124000000
H    -6.464000000     0.000000000     5.810000000
H    -6.615000000    -0.101000000     4.307000000
O     2.933000000     1.308000000     6.719000000
H     2.660000000     2.225000000     6.724000000
H     2.191000000     0.839000000     6.337000000
O     2.636000000    -3.117000000    -3.790000000
H     1.837000000    -2.598000000    -3.885000000
H     2.484000000    -3.649000000    -3.009000000
O     2.062000000     4.348000000    -5.602000000
H     1.335000000     4.715000000    -5.099000000
H     2.646000000     5.091000000    -5.756000000
O     4.673000000    -1.027000000    -3.669000000
H     3.961000000    -1.667000000    -3.656000000
H     4.252000000    -0.206000000    -3.925000000
O     3.080000000    -2.127000000     2.460000000
H     3.415000000    -2.318000000     1.584000000
H     2.302000000    -2.678000000     2.545000000
O    -3.929000000     0.646000000    -3.010000000
H    -3.282000000     1.119000000    -3.534000000
H    -4.669000000     0.517000000    -3.604000000
O     5.899000000    -2.464000000     2.794000000
H     5.052000000    -2.315000000     3.213000000
H     5.681000000    -2.800000000     1.925000000
O    -2.307000000     3.044000000     5.651000000
H    -2.623000000     2.141000000     5.659000000
H    -2.074000000     3.224000000     6.562000000
O     2.463000000    -4.527000000    -1.262000000
H     1.813000000    -4.909000000    -0.671000000
H     3.272000000    -4.999000000    -1.066000000
O    -4.325000000    -2.981000000     4.514000000
H    -3.827000000    -3.668000000     4.957000000
H    -4.302000000    -3.227000000     3.589000000
O     0.878000000     1.175000000    -3.850000000
H     1.258000000     1.885000000    -3.333000000
H     0.090000000     1.556000000    -4.238000000
O    -3.983000000     5.176000000     5.528000000
H    -4.905000000     4.996000000     5.343000000
H    -3.520000000     4.401000000     5.212000000
O    -1.153000000     3.087000000    -4.189000000
H    -0.802000000     3.920000000    -4.502000000
H    -1.717000000     3.326000000    -3.453000000
O     4.374000000    -2.661000000     0.298000000
H     3.892000000    -3.182000000    -0.344000000
H     5.128000000    -2.323000000    -0.186000000
O    -0.859000000    -2.758000000     4.587000000
H    -1.184000000    -1.863000000     4.497000000
H    -0.533000000    -2.805000000     5.485000000
O    -5.632000000     3.421000000     0.673000000
H    -4.821000000     3.234000000     1.145000000
H    -5.837000000     2.605000000     0.216000000
O    -1.634000000    -4.579000000     1.043000000
H    -1.877000000    -4.060000000     0.276000000
H    -2.433000000    -4.618000000     1.569000000
O    -2.133000000    -2.371000000    -0.785000000
H    -1.371000000    -1.803000000    -0.674000000
H    -2.372000000    -2.274000000    -1.706000000
O    -0.883000000     0.074000000     7.438000000
H    -1.796000000     0.032000000     7.153000000
H    -0.921000000     0.475000000     8.306000000
O    -4.565000000    -1.829000000     0.787000000
H    -3.718000000    -2.148000000     0.477000000
H    -4.916000000    -1.325000000     0.053000000
O     1.028000000    -1.667000000    -6.898000000
H     1.499000000    -0.992000000    -6.410000000
H     0.510000000    -2.124000000    -6.235000000
O    -5.271000000     0.403000000     2.730000000
H    -5.285000000    -0.228000000     2.010000000
H    -4.344000000     0.606000000     2.854000000
O     2.600000000     0.137000000    -5.526000000
H     1.971000000     0.555000000    -4.937000000
H     2.822000000     0.819000000    -6.160000000
O    -2.487000000    -1.552000000    -3.342000000
H    -2.881000000    -2.116000000    -4.007000000
H    -3.053000000    -0.781000000    -3.316000000
