158
-3032.66979
C    -0.850000000    -0.816000000     0.884000000
H    -1.519000000    -1.494000000     1.407000000
C     0.226000000    -1.309000000     0.164000000
H     0.403000000    -2.382000000     0.179000000
C     0.963000000    -0.420000000    -0.597000000
H     1.842000000    -0.799000000    -1.150000000
C     0.667000000     0.923000000    -0.687000000
H     1.244000000     1.569000000    -1.344000000
C    -0.417000000     1.381000000     0.102000000
H    -0.616000000     2.446000000     0.008000000
C    -1.196000000     0.553000000     0.832000000
C    -2.375000000     1.053000000     1.622000000
O    -2.675000000     2.215000000     1.702000000
O    -3.132000000     0.280000000     2.106000000
O     1.571000000     3.700000000    -3.009000000
H     2.307000000     4.295000000    -3.148000000
H     1.048000000     4.121000000    -2.326000000
O     2.155000000     3.718000000     0.628000000
H     1.454000000     3.559000000    -0.005000000
H     2.939000000     3.834000000     0.091000000
O     4.356000000    -2.502000000     2.636000000
H     5.113000000    -2.674000000     2.076000000
H     4.182000000    -1.567000000     2.524000000
O    -3.186000000     3.676000000     4.070000000
H    -3.085000000     2.986000000     3.415000000
H    -3.722000000     4.341000000     3.638000000
O     0.331000000     5.178000000    -1.032000000
H    -0.271000000     5.701000000    -1.561000000
H     0.533000000     5.734000000    -0.279000000
O     4.905000000    -1.243000000    -6.362000000
H     4.376000000    -0.511000000    -6.045000000
H     5.810000000    -0.959000000    -6.232000000
O     1.268000000    -0.852000000     3.588000000
H     1.973000000    -0.328000000     3.207000000
H     0.669000000    -1.015000000     2.859000000
O     3.526000000    -5.390000000    -3.561000000
H     2.609000000    -5.514000000    -3.317000000
H     3.520000000    -4.622000000    -4.132000000
O    -0.134000000    -3.561000000     4.651000000
H     0.798000000    -3.384000000     4.521000000
H    -0.245000000    -3.572000000     5.601000000
O     4.625000000     0.439000000     2.400000000
H     4.050000000     1.204000000     2.389000000
H     4.904000000     0.362000000     3.312000000
O    -7.586000000    -0.140000000     2.822000000
H    -6.907000000    -0.330000000     3.470000000
H    -7.682000000    -0.955000000     2.330000000
O    -6.599000000     1.418000000     0.802000000
H    -5.863000000     2.016000000     0.932000000
H    -6.717000000     0.994000000     1.652000000
O    -3.480000000     0.696000000    -1.327000000
H    -4.353000000     0.867000000    -1.679000000
H    -3.301000000     1.444000000    -0.757000000
O     4.042000000    -0.946000000    -2.800000000
H     4.021000000    -0.311000000    -3.516000000
H     4.965000000    -0.995000000    -2.550000000
O     2.534000000    -4.648000000     1.847000000
H     1.621000000    -4.366000000     1.780000000
H     3.004000000    -3.868000000     2.143000000
O    -0.381000000    -5.284000000     0.998000000
H    -0.568000000    -4.727000000     0.242000000
H     0.191000000    -5.970000000     0.654000000
O    -2.803000000     6.097000000    -1.244000000
H    -3.201000000     5.396000000    -1.760000000
H    -2.968000000     5.848000000    -0.334000000
O    -3.386000000    -2.039000000    -0.957000000
H    -3.133000000    -1.117000000    -1.000000000
H    -4.266000000    -2.064000000    -1.332000000
O     6.324000000    -2.892000000     0.446000000
H     5.721000000    -2.157000000     0.332000000
H     5.855000000    -3.645000000     0.088000000
O    -0.376000000    -0.786000000     5.884000000
H    -1.274000000    -0.896000000     5.571000000
H     0.163000000    -0.857000000     5.096000000
O     2.332000000     1.956000000     2.660000000
H     2.459000000     2.604000000     1.967000000
H     1.382000000     1.902000000     2.766000000
O     6.973000000     1.578000000    -0.078000000
H     7.329000000     1.509000000     0.808000000
H     6.336000000     0.866000000    -0.136000000
O    -3.658000000     1.797000000     6.591000000
H    -3.706000000     2.231000000     5.740000000
H    -4.541000000     1.456000000     6.736000000
O    -7.141000000     2.388000000     5.124000000
H    -6.567000000     1.706000000     4.776000000
H    -7.876000000     2.419000000     4.512000000
O     1.008000000    -3.810000000    -6.715000000
H     1.759000000    -4.097000000    -7.235000000
H     1.182000000    -2.888000000    -6.531000000
O     0.178000000     3.073000000     3.836000000
H    -0.732000000     3.091000000     3.539000000
H     0.518000000     3.941000000     3.619000000
O    -1.789000000     0.782000000    -3.843000000
H    -2.512000000     1.199000000    -4.312000000
H    -2.079000000     0.756000000    -2.931000000
O     6.686000000    -1.064000000    -2.434000000
H     7.055000000    -0.889000000    -1.568000000
H     7.373000000    -0.795000000    -3.045000000
O     1.084000000     1.284000000    -4.338000000
H     1.440000000     2.035000000    -3.865000000
H     0.195000000     1.185000000    -3.996000000
O    -3.718000000     6.129000000     1.350000000
H    -4.219000000     6.943000000     1.304000000
H    -3.190000000     6.216000000     2.143000000
O    -2.165000000    -5.568000000    -1.462000000
H    -2.905000000    -5.518000000    -2.068000000
H    -1.622000000    -4.812000000    -1.683000000
O    -5.028000000     0.746000000     4.028000000
H    -4.713000000     1.081000000     3.189000000
H    -4.521000000    -0.053000000     4.173000000
O    -2.543000000    -3.770000000     3.326000000
H    -2.779000000    -4.473000000     2.721000000
H    -1.728000000    -4.068000000     3.732000000
O     4.883000000    -0.414000000    -0.083000000
H     4.784000000    -0.147000000     0.831000000
H     4.163000000    -1.028000000    -0.232000000
O     3.909000000     2.660000000    -1.255000000
H     4.277000000     3.165000000    -1.980000000
H     3.478000000     1.916000000    -1.676000000
O    -3.699000000    -4.346000000     0.699000000
H    -3.622000000    -3.603000000     0.101000000
H    -3.478000000    -5.108000000     0.163000000
O     1.518000000    -0.699000000    -6.447000000
H     1.707000000    -0.338000000    -5.581000000
H     2.037000000    -0.163000000    -7.048000000
O     3.456000000    -2.734000000    -0.477000000
H     3.261000000    -3.671000000    -0.486000000
H     3.556000000    -2.501000000    -1.400000000
O    -2.074000000     6.370000000     3.460000000
H    -1.309000000     5.880000000     3.760000000
H    -1.776000000     7.279000000     3.421000000
O    -2.610000000    -1.222000000     4.217000000
H    -2.600000000    -0.751000000     3.383000000
H    -2.554000000    -2.146000000     3.971000000
O    -4.887000000     3.436000000     1.082000000
H    -4.048000000     3.006000000     1.248000000
H    -4.723000000     4.361000000     1.266000000
O     1.208000000     5.236000000     2.535000000
H     1.591000000     4.605000000     1.926000000
H     1.176000000     6.056000000     2.041000000
O    -2.024000000    -6.660000000     2.565000000
H    -2.155000000    -7.413000000     1.989000000
H    -1.678000000    -5.976000000     1.992000000
O    -1.044000000    -3.095000000    -2.031000000
H    -0.667000000    -2.354000000    -2.505000000
H    -1.721000000    -2.706000000    -1.478000000
O     3.454000000    -2.950000000    -4.764000000
H     3.468000000    -2.160000000    -4.223000000
H     4.110000000    -2.787000000    -5.442000000
O    -5.196000000    -2.193000000     2.210000000
H    -4.901000000    -3.073000000     1.976000000
H    -4.553000000    -1.610000000     1.807000000
O    -4.162000000    -2.423000000     6.352000000
H    -4.029000000    -3.085000000     5.673000000
H    -3.740000000    -1.636000000     6.005000000
O     3.885000000     1.123000000    -4.631000000
H     2.957000000     1.078000000    -4.398000000
H     4.148000000     2.013000000    -4.394000000
