158
-3037.31109
C    -1.266000000    -0.781000000     0.032000000
H    -2.171000000    -1.345000000    -0.177000000
C    -0.354000000    -0.726000000    -0.962000000
H    -0.589000000    -1.343000000    -1.825000000
C     0.880000000     0.040000000    -0.884000000
H     1.616000000     0.086000000    -1.650000000
C     1.104000000     0.746000000     0.287000000
H     2.074000000     1.223000000     0.404000000
C     0.154000000     0.678000000     1.298000000
H     0.331000000     1.211000000     2.229000000
C    -0.963000000    -0.100000000     1.186000000
C    -2.049000000    -0.004000000     2.291000000
O    -1.735000000     0.492000000     3.385000000
O    -3.203000000    -0.153000000     1.897000000
O    -1.168000000    -0.613000000     7.487000000
H    -0.244000000    -0.369000000     7.442000000
H    -1.551000000     0.012000000     8.103000000
O     3.076000000     3.308000000     2.422000000
H     3.354000000     2.587000000     1.858000000
H     3.149000000     2.959000000     3.310000000
O    -4.134000000     2.393000000     3.889000000
H    -3.497000000     1.795000000     3.498000000
H    -4.968000000     2.152000000     3.486000000
O     1.369000000    -0.289000000    -7.500000000
H     1.287000000    -1.228000000    -7.335000000
H     1.460000000     0.100000000    -6.630000000
O     4.855000000     4.080000000    -3.813000000
H     5.127000000     3.167000000    -3.713000000
H     4.062000000     4.036000000    -4.348000000
O     3.367000000     3.130000000    -0.976000000
H     3.456000000     3.822000000    -0.321000000
H     3.990000000     2.458000000    -0.700000000
O    -4.689000000     0.028000000    -2.811000000
H    -4.647000000     0.387000000    -1.925000000
H    -4.014000000     0.505000000    -3.295000000
O    -2.945000000    -1.107000000     5.475000000
H    -2.392000000    -1.083000000     6.255000000
H    -2.429000000    -0.663000000     4.802000000
O     2.986000000    -2.510000000    -1.549000000
H     2.402000000    -3.018000000    -0.986000000
H     3.860000000    -2.850000000    -1.358000000
O    -6.899000000    -3.087000000     1.583000000
H    -6.393000000    -2.373000000     1.195000000
H    -6.844000000    -2.935000000     2.527000000
O     3.649000000    -0.967000000     0.901000000
H     4.241000000    -0.226000000     0.767000000
H     3.102000000    -0.980000000     0.116000000
O    -5.573000000    -0.355000000     0.747000000
H    -4.694000000    -0.213000000     1.098000000
H    -5.467000000    -1.065000000     0.115000000
O     0.333000000    -2.390000000     5.309000000
H     0.334000000    -2.239000000     6.254000000
H     0.492000000    -1.526000000     4.928000000
O    -0.218000000     3.692000000    -1.433000000
H     0.306000000     3.724000000    -0.632000000
H    -0.544000000     2.793000000    -1.471000000
O     0.552000000     0.390000000    -4.596000000
H     1.408000000     0.083000000    -4.298000000
H     0.208000000     0.896000000    -3.860000000
O    -1.090000000    -4.372000000     1.506000000
H    -0.965000000    -4.419000000     2.454000000
H    -1.827000000    -3.772000000     1.392000000
O    -3.126000000     4.763000000     1.565000000
H    -3.861000000     4.150000000     1.580000000
H    -2.832000000     4.761000000     0.654000000
O    -6.421000000     1.493000000     3.076000000
H    -7.037000000     1.123000000     2.442000000
H    -6.891000000     1.466000000     3.909000000
O    -4.055000000     4.923000000     4.945000000
H    -3.850000000     4.037000000     4.644000000
H    -4.562000000     5.307000000     4.230000000
O     0.810000000     0.350000000     4.671000000
H     0.834000000     1.184000000     5.142000000
H     0.024000000     0.405000000     4.128000000
O     3.426000000    -1.761000000    -4.350000000
H     3.527000000    -2.632000000    -4.734000000
H     3.176000000    -1.928000000    -3.441000000
O    -1.843000000    -4.917000000    -4.917000000
H    -1.302000000    -4.697000000    -4.158000000
H    -1.628000000    -4.249000000    -5.567000000
O     5.054000000     1.127000000    -0.297000000
H     5.612000000     0.349000000    -0.284000000
H     5.623000000     1.825000000    -0.621000000
O     3.279000000    -0.006000000     3.407000000
H     2.373000000    -0.228000000     3.625000000
H     3.480000000    -0.546000000     2.642000000
O    -5.000000000     1.432000000     6.369000000
H    -4.706000000     1.522000000     5.463000000
H    -5.685000000     2.093000000     6.466000000
O    -5.252000000     3.052000000     1.017000000
H    -5.649000000     2.505000000     1.694000000
H    -5.995000000     3.405000000     0.527000000
O    -0.073000000     5.794000000     3.291000000
H    -0.612000000     5.012000000     3.408000000
H    -0.666000000     6.523000000     3.472000000
O    -1.273000000     3.389000000     3.142000000
H    -1.537000000     2.471000000     3.202000000
H    -2.052000000     3.842000000     2.821000000
O     7.102000000    -0.937000000    -4.085000000
H     6.759000000    -0.072000000    -3.860000000
H     6.488000000    -1.550000000    -3.682000000
O    -4.805000000    -2.397000000    -1.098000000
H    -4.620000000    -1.872000000    -1.877000000
H    -5.585000000    -2.901000000    -1.328000000
O     0.883000000     3.139000000     4.959000000
H     0.146000000     3.210000000     4.352000000
H     0.919000000     3.991000000     5.394000000
O    -5.270000000    -0.964000000     4.082000000
H    -4.922000000    -0.560000000     3.287000000
H    -4.674000000    -0.680000000     4.776000000
O     1.460000000    -4.147000000    -0.098000000
H     0.857000000    -3.576000000     0.378000000
H     2.012000000    -4.532000000     0.582000000
O     1.028000000     3.814000000    -5.987000000
H     1.169000000     3.615000000    -5.061000000
H     1.649000000     4.516000000    -6.178000000
O    -1.253000000    -1.741000000    -4.540000000
H    -0.506000000    -2.110000000    -5.011000000
H    -1.037000000    -0.813000000    -4.439000000
O    -1.099000000     1.366000000    -2.627000000
H    -1.908000000     1.467000000    -3.129000000
H    -1.315000000     0.722000000    -1.952000000
O    -4.623000000    -3.363000000    -3.769000000
H    -3.702000000    -3.412000000    -4.025000000
H    -4.989000000    -2.673000000    -4.322000000
O     5.068000000    -3.822000000     0.072000000
H     4.648000000    -4.193000000     0.848000000
H     5.087000000    -2.879000000     0.238000000
O     0.822000000     3.820000000     1.001000000
H     0.091000000     3.613000000     1.582000000
H     1.586000000     3.852000000     1.578000000
O     1.823000000     2.648000000    -3.297000000
H     2.571000000     2.715000000    -2.703000000
H     1.124000000     3.131000000    -2.857000000
O     3.415000000     2.544000000    -6.804000000
H     2.639000000     2.164000000    -7.216000000
H     3.761000000     1.842000000    -6.253000000
O    -0.149000000    -4.555000000    -2.526000000
H     0.364000000    -3.997000000    -1.942000000
H     0.436000000    -5.283000000    -2.737000000
O    -3.744000000    -2.904000000     1.509000000
H    -3.945000000    -2.913000000     0.574000000
H    -3.587000000    -1.982000000     1.712000000
O    -8.097000000     0.336000000     1.152000000
H    -8.085000000     0.733000000     0.281000000
H    -7.236000000    -0.074000000     1.240000000
O     4.502000000     0.548000000    -5.326000000
H     4.896000000     0.911000000    -4.533000000
H     4.062000000    -0.249000000    -5.032000000
O     3.619000000     2.905000000     5.200000000
H     3.817000000     2.010000000     5.477000000
H     2.666000000     2.969000000     5.262000000
O     1.732000000     5.411000000    -2.246000000
H     0.831000000     5.333000000    -1.932000000
H     2.210000000     4.729000000    -1.773000000
O    -3.339000000     1.967000000    -1.049000000
H    -3.858000000     2.196000000    -0.278000000
H    -3.092000000     2.810000000    -1.429000000
