158
-3039.13180
C    -1.258000000     0.843000000     0.245000000
H    -2.114000000     1.500000000     0.379000000
C    -0.919000000     0.273000000    -0.976000000
H    -1.440000000     0.407000000    -1.921000000
C     0.285000000    -0.426000000    -1.153000000
H     0.513000000    -0.764000000    -2.215000000
C     1.150000000    -0.508000000    -0.040000000
H     2.139000000    -0.954000000    -0.116000000
C     0.783000000    -0.055000000     1.238000000
H     1.384000000    -0.179000000     2.135000000
C    -0.430000000     0.568000000     1.363000000
C    -0.857000000     1.126000000     2.740000000
O    -0.135000000     1.054000000     3.699000000
O    -1.953000000     1.687000000     2.880000000
O     4.764000000     0.730000000     4.501000000
H     4.917000000     0.292000000     3.663000000
H     3.823000000     0.638000000     4.650000000
O    -2.376000000     0.969000000    -6.586000000
H    -3.130000000     0.816000000    -6.017000000
H    -1.641000000     0.562000000    -6.127000000
O     4.174000000    -1.305000000    -1.439000000
H     3.707000000    -2.092000000    -1.718000000
H     5.064000000    -1.607000000    -1.256000000
O     1.637000000    -4.701000000     2.022000000
H     1.635000000    -3.842000000     2.445000000
H     0.715000000    -4.959000000     2.000000000
O    -2.450000000    -5.065000000    -3.798000000
H    -3.300000000    -4.720000000    -3.525000000
H    -2.657000000    -5.693000000    -4.490000000
O    -0.053000000     3.902000000     1.717000000
H     0.549000000     4.504000000     2.153000000
H    -0.619000000     3.579000000     2.418000000
O    -3.804000000    -2.709000000     0.212000000
H    -3.593000000    -3.192000000     1.012000000
H    -3.026000000    -2.806000000    -0.337000000
O     5.898000000    -0.455000000     1.781000000
H     6.069000000    -0.976000000     0.996000000
H     5.932000000     0.453000000     1.478000000
O    -3.354000000     2.045000000     7.381000000
H    -3.350000000     2.818000000     7.946000000
H    -2.451000000     1.729000000     7.401000000
O    -1.389000000    -3.217000000    -1.249000000
H    -0.877000000    -2.442000000    -1.019000000
H    -1.250000000    -3.326000000    -2.190000000
O    -3.042000000     0.350000000     5.049000000
H    -2.991000000     1.149000000     5.574000000
H    -2.743000000     0.614000000     4.180000000
O    -0.351000000    -6.656000000    -2.659000000
H     0.058000000    -6.763000000    -3.517000000
H    -1.254000000    -6.404000000    -2.853000000
O    -0.549000000     3.241000000     5.061000000
H    -0.538000000     2.549000000     4.400000000
H     0.352000000     3.563000000     5.086000000
O    -4.375000000     2.662000000     2.242000000
H    -3.996000000     3.300000000     2.847000000
H    -3.696000000     1.995000000     2.142000000
O    -3.042000000     4.481000000     4.417000000
H    -3.447000000     4.021000000     5.152000000
H    -2.216000000     4.020000000     4.271000000
O    -5.336000000     2.709000000    -0.477000000
H    -4.994000000     2.928000000     0.390000000
H    -5.713000000     3.528000000    -0.799000000
O     2.295000000    -1.764000000     3.794000000
H     2.082000000    -0.918000000     4.189000000
H     1.460000000    -2.233000000     3.768000000
O    -1.755000000     3.111000000    -3.107000000
H    -1.418000000     3.457000000    -2.280000000
H    -2.446000000     3.724000000    -3.358000000
O     1.358000000    -2.583000000    -3.797000000
H     1.878000000    -2.156000000    -4.477000000
H     0.454000000    -2.343000000    -4.001000000
O     4.544000000    -4.849000000     1.676000000
H     3.588000000    -4.858000000     1.720000000
H     4.804000000    -4.148000000     2.273000000
O    -0.170000000    -2.708000000     3.161000000
H    -0.617000000    -1.922000000     3.473000000
H    -0.258000000    -3.335000000     3.878000000
O    -0.882000000     3.207000000    -6.453000000
H    -1.220000000     3.172000000    -5.559000000
H    -1.186000000     2.395000000    -6.857000000
O    -0.650000000     1.531000000     7.069000000
H    -0.268000000     1.649000000     7.939000000
H    -0.255000000     2.224000000     6.539000000
O    -4.520000000    -0.011000000    -2.597000000
H    -4.501000000    -0.930000000    -2.331000000
H    -4.382000000    -0.033000000    -3.544000000
O     2.031000000     0.433000000    -4.553000000
H     2.324000000    -0.337000000    -5.040000000
H     2.205000000     1.168000000    -5.142000000
O     1.951000000     3.492000000     6.424000000
H     2.593000000     2.827000000     6.674000000
H     1.684000000     3.890000000     7.253000000
O    -6.942000000     0.973000000     1.240000000
H    -6.385000000     1.743000000     1.357000000
H    -6.371000000     0.325000000     0.828000000
O     4.718000000    -2.674000000     3.383000000
H     5.153000000    -1.910000000     3.005000000
H     3.796000000    -2.420000000     3.440000000
O    -0.604000000    -0.792000000     5.614000000
H    -0.577000000    -0.020000000     5.048000000
H    -1.041000000    -0.490000000     6.410000000
O     6.451000000     2.126000000    -0.378000000
H     6.882000000     1.817000000    -1.175000000
H     5.533000000     2.232000000    -0.628000000
O     3.438000000    -4.215000000    -2.307000000
H     2.884000000    -4.980000000    -2.147000000
H     2.999000000    -3.745000000    -3.015000000
O     2.151000000     0.281000000    -8.369000000
H     1.709000000    -0.211000000    -7.677000000
H     2.674000000     0.933000000    -7.902000000
O    -1.417000000    -1.887000000    -4.510000000
H    -2.089000000    -2.333000000    -5.026000000
H    -1.577000000    -0.955000000    -4.664000000
O     4.582000000     0.764000000    -3.197000000
H     4.230000000     0.043000000    -2.675000000
H     3.809000000     1.200000000    -3.554000000
O     2.110000000     0.652000000     5.026000000
H     1.904000000     0.573000000     5.958000000
H     1.257000000     0.735000000     4.600000000
O    -0.821000000     0.830000000    -4.332000000
H    -0.007000000     0.595000000    -3.887000000
H    -1.113000000     1.628000000    -3.891000000
O     2.509000000    -2.062000000    -6.314000000
H     1.921000000    -2.691000000    -6.732000000
H     3.369000000    -2.251000000    -6.690000000
O     1.705000000     3.974000000    -2.466000000
H     1.825000000     4.304000000    -3.357000000
H     0.910000000     4.408000000    -2.155000000
O    -3.662000000    -3.166000000     2.776000000
H    -4.587000000    -3.031000000     2.980000000
H    -3.194000000    -2.784000000     3.518000000
O    -2.859000000    -2.763000000     5.446000000
H    -2.056000000    -3.171000000     5.771000000
H    -2.687000000    -1.823000000     5.496000000
O    -2.804000000     5.780000000     0.495000000
H    -2.427000000     5.151000000     1.110000000
H    -3.233000000     5.238000000    -0.168000000
O     6.065000000    -4.002000000    -1.552000000
H     5.152000000    -4.291000000    -1.526000000
H     6.421000000    -4.402000000    -2.345000000
O    -5.490000000    -1.264000000     3.859000000
H    -4.805000000    -0.707000000     4.230000000
H    -5.936000000    -0.705000000     3.223000000
O    -4.623000000    -0.072000000     0.432000000
H    -4.166000000     0.284000000    -0.330000000
H    -4.251000000    -0.946000000     0.549000000
O    -5.464000000     2.509000000    -3.440000000
H    -5.030000000     1.888000000    -2.855000000
H    -4.844000000     3.233000000    -3.523000000
O    -1.177000000    -5.809000000    -0.275000000
H    -0.625000000    -5.946000000    -1.045000000
H    -1.175000000    -4.860000000    -0.145000000
O     4.158000000     3.501000000    -1.176000000
H     3.235000000     3.343000000    -1.377000000
H     4.577000000     3.590000000    -2.032000000
O    -0.421000000     3.710000000    -0.833000000
H     0.168000000     2.956000000    -0.813000000
H    -0.598000000     3.900000000     0.088000000
