158
-3050.21019
C    -1.106000000    -0.530000000     0.736000000
H    -1.872000000    -1.175000000     1.158000000
C    -0.938000000    -0.532000000    -0.614000000
H    -1.584000000    -1.138000000    -1.244000000
C     0.125000000     0.127000000    -1.216000000
H     0.296000000     0.148000000    -2.315000000
C     1.042000000     0.778000000    -0.377000000
H     1.880000000     1.352000000    -0.764000000
C     0.985000000     0.560000000     0.977000000
H     1.771000000     1.041000000     1.554000000
C    -0.138000000    -0.070000000     1.550000000
C    -0.249000000    -0.218000000     2.998000000
O     0.667000000     0.116000000     3.709000000
O    -1.214000000    -0.937000000     3.436000000
O     4.456000000    -2.021000000     4.401000000
H     4.052000000    -1.561000000     5.136000000
H     3.852000000    -1.883000000     3.671000000
O     4.717000000    -0.496000000     1.664000000
H     4.829000000     0.057000000     0.891000000
H     3.938000000    -1.018000000     1.473000000
O    -2.587000000     0.569000000    -7.070000000
H    -3.275000000     0.010000000    -6.710000000
H    -2.028000000     0.773000000    -6.321000000
O     1.480000000    -2.891000000    -1.450000000
H     0.852000000    -3.183000000    -2.111000000
H     1.044000000    -3.063000000    -0.615000000
O     5.910000000     1.399000000     3.057000000
H     5.379000000     0.657000000     2.768000000
H     6.549000000     1.524000000     2.356000000
O     1.516000000     4.275000000    -5.183000000
H     1.946000000     5.113000000    -5.010000000
H     0.706000000     4.512000000    -5.635000000
O     1.709000000     5.562000000     1.683000000
H     2.555000000     5.158000000     1.878000000
H     1.852000000     6.497000000     1.828000000
O    -2.542000000    -3.910000000    -1.143000000
H    -3.243000000    -3.315000000    -0.879000000
H    -2.764000000    -4.160000000    -2.040000000
O     4.578000000     0.876000000    -0.539000000
H     4.162000000     1.427000000    -1.203000000
H     5.517000000     0.997000000    -0.682000000
O    -4.947000000    -5.164000000     3.324000000
H    -4.339000000    -5.712000000     2.828000000
H    -4.419000000    -4.421000000     3.613000000
O    -0.474000000    -4.116000000     0.577000000
H    -0.581000000    -3.792000000     1.471000000
H    -1.337000000    -4.009000000     0.178000000
O    -4.175000000     1.770000000     5.026000000
H    -4.374000000     2.612000000     5.435000000
H    -3.226000000     1.782000000     4.901000000
O     2.083000000     4.289000000     6.407000000
H     2.889000000     3.896000000     6.744000000
H     1.718000000     3.623000000     5.824000000
O     1.368000000     2.737000000     3.997000000
H     1.226000000     1.791000000     3.957000000
H     0.589000000     3.114000000     3.588000000
O    -4.807000000     1.597000000     1.458000000
H    -4.019000000     2.130000000     1.565000000
H    -4.542000000     0.895000000     0.864000000
O    -1.310000000     2.733000000     2.837000000
H    -1.681000000     3.599000000     3.005000000
H    -1.254000000     2.325000000     3.701000000
O    -2.383000000     2.344000000     0.317000000
H    -1.839000000     2.455000000     1.096000000
H    -2.002000000     1.592000000    -0.137000000
O     2.167000000    -2.396000000     2.571000000
H     1.494000000    -1.809000000     2.914000000
H     1.859000000    -3.273000000     2.799000000
O    -2.469000000     2.251000000    -2.636000000
H    -2.680000000     2.202000000    -1.703000000
H    -2.800000000     3.105000000    -2.912000000
O    -0.243000000    -3.484000000    -3.951000000
H    -0.411000000    -2.704000000    -4.479000000
H    -0.972000000    -4.071000000    -4.152000000
O     3.853000000     3.108000000     2.220000000
H     3.030000000     2.984000000     2.693000000
H     4.451000000     2.470000000     2.608000000
O    -0.944000000    -3.578000000     3.436000000
H    -1.131000000    -2.640000000     3.464000000
H    -1.336000000    -3.925000000     4.237000000
O    -1.371000000     2.572000000     5.448000000
H    -1.365000000     3.158000000     6.204000000
H    -0.906000000     1.790000000     5.747000000
O    -4.238000000    -3.059000000    -3.105000000
H    -5.186000000    -3.032000000    -2.973000000
H    -3.991000000    -2.145000000    -3.247000000
O     1.930000000     1.316000000    -4.829000000
H     1.633000000     0.521000000    -5.271000000
H     2.111000000     1.931000000    -5.540000000
O     3.846000000    -1.836000000    -1.251000000
H     3.805000000    -0.880000000    -1.215000000
H     2.940000000    -2.120000000    -1.132000000
O     4.020000000    -0.910000000     8.017000000
H     3.497000000    -0.660000000     7.255000000
H     4.536000000    -1.659000000     7.719000000
O    -0.720000000    -0.147000000     6.361000000
H    -1.233000000    -0.346000000     5.578000000
H    -0.069000000    -0.847000000     6.406000000
O     2.434000000    -4.289000000    -4.410000000
H     2.454000000    -5.073000000    -4.959000000
H     1.517000000    -4.202000000    -4.150000000
O     4.304000000     4.833000000     0.241000000
H     4.041000000     4.340000000     1.019000000
H     4.342000000     4.179000000    -0.456000000
O     0.972000000     0.252000000    -8.356000000
H     0.531000000    -0.320000000    -7.727000000
H     0.813000000     1.136000000    -8.026000000
O     4.459000000     0.552000000    -3.975000000
H     4.407000000    -0.386000000    -4.161000000
H     3.595000000     0.891000000    -4.209000000
O     2.825000000     2.704000000    -7.177000000
H     2.937000000     3.045000000    -8.064000000
H     2.578000000     3.467000000    -6.656000000
O     2.416000000    -0.474000000     5.919000000
H     2.069000000     0.107000000     6.596000000
H     1.877000000    -0.293000000     5.149000000
O    -1.081000000     0.816000000    -4.662000000
H    -0.125000000     0.847000000    -4.688000000
H    -1.306000000     1.095000000    -3.774000000
O    -3.312000000    -6.480000000     1.396000000
H    -2.597000000    -7.050000000     1.112000000
H    -3.197000000    -5.679000000     0.884000000
O     1.480000000    -1.507000000    -5.620000000
H     1.266000000    -2.223000000    -6.219000000
H     2.425000000    -1.580000000    -5.487000000
O     0.297000000     3.379000000    -2.737000000
H     0.453000000     3.358000000    -3.681000000
H    -0.627000000     3.145000000    -2.642000000
O    -4.574000000    -2.252000000     0.693000000
H    -5.475000000    -2.473000000     0.928000000
H    -4.180000000    -1.952000000     1.512000000
O    -3.757000000    -1.742000000     3.313000000
H    -4.336000000    -1.484000000     4.030000000
H    -2.893000000    -1.424000000     3.577000000
O    -6.149000000     0.277000000     3.784000000
H    -6.172000000     0.597000000     2.883000000
H    -5.413000000     0.739000000     4.184000000
O    -4.680000000    -0.081000000    -0.819000000
H    -4.345000000    -0.222000000    -1.704000000
H    -4.400000000    -0.856000000    -0.331000000
O    -3.763000000    -0.443000000    -3.289000000
H    -4.009000000    -0.566000000    -4.206000000
H    -3.205000000     0.334000000    -3.293000000
O    -0.362000000    -6.441000000    -1.046000000
H    -0.470000000    -5.568000000    -0.670000000
H    -1.118000000    -6.547000000    -1.624000000
O    -2.601000000    -4.117000000     6.039000000
H    -3.206000000    -3.399000000     5.853000000
H    -2.432000000    -4.051000000     6.979000000
O     4.161000000     3.117000000    -2.361000000
H     3.258000000     3.323000000    -2.604000000
H     4.476000000     2.555000000    -3.069000000
O     0.256000000     5.643000000    -0.761000000
H     0.693000000     5.355000000     0.041000000
H     0.245000000     4.867000000    -1.320000000
O     3.878000000    -2.180000000    -4.001000000
H     3.810000000    -2.150000000    -3.046000000
H     3.485000000    -3.019000000    -4.243000000
