158
-3029.83005
C    -0.732000000    -1.201000000     0.581000000
H    -1.297000000    -2.107000000     0.786000000
C    -0.563000000    -0.914000000    -0.775000000
H    -1.052000000    -1.523000000    -1.530000000
C     0.116000000     0.246000000    -1.170000000
H     0.130000000     0.381000000    -2.235000000
C     0.777000000     1.057000000    -0.262000000
H     1.246000000     1.957000000    -0.652000000
C     0.675000000     0.722000000     1.052000000
H     1.157000000     1.441000000     1.710000000
C    -0.130000000    -0.371000000     1.548000000
C    -0.175000000    -0.675000000     3.042000000
O     0.315000000     0.139000000     3.791000000
O    -0.874000000    -1.628000000     3.482000000
O     2.565000000    -2.010000000    -1.815000000
H     2.819000000    -2.186000000    -0.909000000
H     1.673000000    -1.670000000    -1.752000000
O     2.039000000     3.733000000    -4.800000000
H     1.461000000     4.464000000    -4.581000000
H     2.186000000     3.818000000    -5.742000000
O    -1.101000000    -7.033000000     1.160000000
H    -1.833000000    -6.443000000     0.982000000
H    -0.353000000    -6.452000000     1.300000000
O     2.989000000    -4.817000000    -2.466000000
H     2.281000000    -5.399000000    -2.190000000
H     2.662000000    -3.937000000    -2.277000000
O     0.746000000    -6.035000000    -1.366000000
H     0.002000000    -5.620000000    -0.929000000
H     0.432000000    -6.911000000    -1.591000000
O     3.489000000    -1.838000000     0.902000000
H     2.849000000    -2.257000000     1.478000000
H     4.337000000    -2.137000000     1.228000000
O     4.535000000     4.672000000    -3.680000000
H     4.774000000     3.798000000    -3.371000000
H     3.640000000     4.574000000    -4.006000000
O     2.092000000     1.199000000    -7.068000000
H     2.360000000     2.085000000    -7.313000000
H     2.851000000     0.839000000    -6.609000000
O     0.492000000     2.959000000     3.943000000
H     1.233000000     2.888000000     3.340000000
H     0.241000000     2.053000000     4.122000000
O     2.977000000    -0.931000000     8.193000000
H     2.717000000    -1.835000000     8.017000000
H     2.272000000    -0.402000000     7.822000000
O     3.965000000     0.693000000     0.626000000
H     3.472000000     1.078000000    -0.098000000
H     3.621000000    -0.197000000     0.703000000
O    -1.561000000    -4.663000000    -0.858000000
H    -2.333000000    -4.216000000    -0.512000000
H    -1.798000000    -4.888000000    -1.758000000
O     3.635000000     1.944000000    -2.242000000
H     4.365000000     1.365000000    -2.460000000
H     2.966000000     1.743000000    -2.896000000
O     1.855000000    -6.026000000     1.244000000
H     1.618000000    -6.015000000     0.317000000
H     1.990000000    -5.106000000     1.469000000
O    -3.541000000     1.435000000     4.735000000
H    -3.282000000     1.833000000     3.904000000
H    -3.597000000     0.498000000     4.545000000
O    -3.255000000    -4.900000000     2.206000000
H    -3.706000000    -4.537000000     2.968000000
H    -3.913000000    -4.893000000     1.511000000
O    -5.693000000    -2.690000000     4.168000000
H    -6.289000000    -2.040000000     4.539000000
H    -4.841000000    -2.253000000     4.153000000
O    -3.278000000     1.924000000     0.049000000
H    -3.980000000     2.158000000     0.657000000
H    -2.483000000     1.947000000     0.581000000
O     0.770000000     0.230000000     6.868000000
H     0.336000000    -0.133000000     6.095000000
H     0.053000000     0.530000000     7.426000000
O    -4.282000000    -2.554000000    -1.632000000
H    -3.904000000    -2.063000000    -2.362000000
H    -4.762000000    -3.270000000    -2.048000000
O    -2.123000000     3.153000000     3.038000000
H    -1.310000000     3.255000000     3.533000000
H    -2.019000000     3.735000000     2.285000000
O    -3.004000000     0.976000000    -2.471000000
H    -2.292000000     1.603000000    -2.599000000
H    -3.224000000     1.049000000    -1.543000000
O     1.991000000    -3.452000000     2.860000000
H     1.051000000    -3.623000000     2.928000000
H     2.251000000    -3.189000000     3.743000000
O    -3.903000000     1.860000000    -4.821000000
H    -3.713000000     1.364000000    -4.025000000
H    -3.467000000     2.702000000    -4.688000000
O    -0.265000000    -4.298000000    -4.950000000
H    -1.076000000    -4.340000000    -4.444000000
H    -0.496000000    -4.660000000    -5.805000000
O     1.968000000    -2.666000000    -4.850000000
H     1.337000000    -3.380000000    -4.758000000
H     2.810000000    -3.059000000    -4.618000000
O     2.520000000     2.326000000     5.855000000
H     1.796000000     1.799000000     6.194000000
H     3.005000000     1.728000000     5.286000000
O    -0.708000000    -4.179000000     2.626000000
H    -0.791000000    -3.389000000     3.159000000
H    -1.583000000    -4.318000000     2.265000000
O    -1.089000000     3.403000000    -3.168000000
H    -1.917000000     3.859000000    -3.316000000
H    -0.438000000     4.102000000    -3.108000000
O    -1.172000000    -4.546000000     7.326000000
H    -2.021000000    -4.243000000     7.645000000
H    -0.808000000    -3.793000000     6.860000000
O     2.856000000     3.229000000     2.748000000
H     3.284000000     3.040000000     3.583000000
H     3.317000000     3.996000000     2.409000000
O     1.416000000    -3.741000000     5.598000000
H     1.080000000    -2.858000000     5.749000000
H     2.196000000    -3.797000000     6.150000000
O     5.101000000     0.666000000     5.411000000
H     5.520000000    -0.180000000     5.568000000
H     4.363000000     0.465000000     4.837000000
O    -1.218000000    -2.031000000     6.278000000
H    -2.081000000    -1.874000000     6.662000000
H    -1.307000000    -1.748000000     5.368000000
O     4.558000000     3.547000000    -0.314000000
H     3.911000000     4.248000000    -0.382000000
H     4.353000000     2.960000000    -1.042000000
O     2.420000000     5.917000000    -0.382000000
H     1.562000000     5.790000000    -0.786000000
H     2.228000000     6.302000000     0.473000000
O     3.240000000     0.015000000    -4.511000000
H     2.603000000    -0.629000000    -4.821000000
H     4.066000000    -0.252000000    -4.914000000
O     2.882000000     0.496000000     3.722000000
H     1.944000000     0.304000000     3.746000000
H     3.023000000     0.889000000     2.860000000
O    -0.848000000    -1.415000000    -5.387000000
H    -0.034000000    -1.728000000    -4.994000000
H    -0.840000000    -0.470000000    -5.235000000
O    -3.407000000    -1.146000000     3.305000000
H    -3.568000000    -1.023000000     2.369000000
H    -2.454000000    -1.114000000     3.389000000
O    -3.977000000    -0.752000000     0.582000000
H    -3.515000000     0.045000000     0.321000000
H    -3.942000000    -1.313000000    -0.192000000
O     1.852000000     5.460000000     4.991000000
H     1.601000000     4.567000000     4.755000000
H     2.322000000     5.367000000     5.819000000
O    -5.376000000    -4.309000000     0.549000000
H    -5.319000000    -3.870000000    -0.299000000
H    -6.167000000    -3.951000000     0.951000000
O    -3.487000000     4.602000000    -4.216000000
H    -4.435000000     4.677000000    -4.112000000
H    -3.306000000     5.009000000    -5.063000000
O    -3.241000000    -1.421000000    -3.924000000
H    -2.357000000    -1.473000000    -4.290000000
H    -3.259000000    -0.585000000    -3.459000000
O    -2.684000000    -2.701000000    -6.796000000
H    -2.046000000    -2.392000000    -6.153000000
H    -2.878000000    -3.599000000    -6.530000000
O     0.023000000    -5.916000000     4.662000000
H    -0.214000000    -5.381000000     3.905000000
H     0.493000000    -5.316000000     5.241000000
O    -0.198000000     1.207000000    -4.996000000
H     0.210000000     1.777000000    -4.345000000
H     0.161000000     1.503000000    -5.833000000
