158
-3029.06380
C    -0.423000000    -1.351000000     0.134000000
H    -0.728000000    -2.394000000     0.127000000
C     0.344000000    -0.872000000    -0.899000000
H     0.794000000    -1.566000000    -1.604000000
C     0.626000000     0.483000000    -0.986000000
H     1.213000000     0.871000000    -1.717000000
C     0.176000000     1.303000000     0.086000000
H     0.389000000     2.369000000     0.105000000
C    -0.463000000     0.830000000     1.196000000
H    -0.703000000     1.484000000     2.031000000
C    -0.829000000    -0.570000000     1.245000000
C    -1.604000000    -1.252000000     2.375000000
O    -1.764000000    -0.707000000     3.447000000
O    -2.131000000    -2.353000000     2.240000000
O     6.236000000    -1.988000000    -3.155000000
H     5.407000000    -1.590000000    -2.890000000
H     5.991000000    -2.847000000    -3.498000000
O     3.964000000    -1.108000000    -1.677000000
H     3.483000000    -1.517000000    -0.958000000
H     3.743000000    -0.179000000    -1.615000000
O     0.433000000     3.006000000    -6.028000000
H    -0.270000000     3.224000000    -6.641000000
H     1.236000000     3.241000000    -6.493000000
O    -4.081000000     0.806000000    -2.439000000
H    -4.250000000     0.604000000    -1.519000000
H    -3.229000000     1.241000000    -2.437000000
O    -2.232000000    -5.721000000     1.669000000
H    -1.534000000    -5.619000000     2.316000000
H    -2.804000000    -4.967000000     1.812000000
O     0.427000000     0.406000000     7.127000000
H    -0.316000000     0.252000000     7.711000000
H     0.041000000     0.813000000     6.351000000
O     3.470000000     7.005000000    -0.593000000
H     3.380000000     6.107000000    -0.913000000
H     2.739000000     7.117000000     0.014000000
O     3.024000000    -5.119000000    -0.566000000
H     2.142000000    -5.377000000    -0.835000000
H     2.897000000    -4.301000000    -0.085000000
O     0.415000000    -4.306000000    -1.160000000
H     0.102000000    -5.210000000    -1.156000000
H     0.055000000    -3.924000000    -0.360000000
O     2.673000000    -2.330000000     0.840000000
H     1.920000000    -2.391000000     1.428000000
H     3.391000000    -2.734000000     1.328000000
O     4.501000000     1.649000000    -5.382000000
H     3.619000000     1.905000000    -5.111000000
H     4.387000000     0.789000000    -5.785000000
O     2.387000000    -0.688000000    -7.369000000
H     1.746000000    -0.218000000    -6.837000000
H     2.175000000    -1.613000000    -7.239000000
O    -0.429000000     1.148000000     4.792000000
H     0.249000000     1.412000000     4.170000000
H    -1.062000000     0.661000000     4.265000000
O     2.527000000     0.206000000     1.304000000
H     1.764000000     0.497000000     0.805000000
H     2.629000000    -0.717000000     1.070000000
O    -0.605000000    -6.690000000    -0.239000000
H    -1.029000000    -6.548000000     0.607000000
H    -0.804000000    -7.600000000    -0.458000000
O     1.867000000     1.343000000    -4.224000000
H     1.692000000     0.427000000    -4.009000000
H     1.132000000     1.604000000    -4.779000000
O    -3.373000000     2.752000000     5.181000000
H    -2.550000000     2.626000000     5.654000000
H    -3.107000000     2.905000000     4.274000000
O    -4.587000000    -0.157000000     2.979000000
H    -3.871000000    -0.719000000     3.273000000
H    -4.631000000     0.539000000     3.635000000
O    -6.314000000    -2.411000000     2.116000000
H    -6.546000000    -2.136000000     1.230000000
H    -5.892000000    -1.644000000     2.503000000
O    -4.487000000    -3.892000000     5.186000000
H    -4.317000000    -2.950000000     5.167000000
H    -4.198000000    -4.204000000     4.328000000
O    -1.857000000     2.378000000    -2.375000000
H    -1.402000000     3.051000000    -2.882000000
H    -1.770000000     2.664000000    -1.465000000
O     0.202000000    -1.825000000     5.117000000
H    -0.501000000    -1.616000000     4.502000000
H     0.273000000    -1.049000000     5.672000000
O     2.244000000     4.418000000     2.820000000
H     3.073000000     4.877000000     2.953000000
H     1.585000000     4.996000000     3.204000000
O    -3.654000000    -4.014000000    -1.198000000
H    -3.241000000    -4.493000000    -1.916000000
H    -4.092000000    -4.689000000    -0.680000000
O    -2.726000000     3.057000000     2.667000000
H    -2.475000000     2.158000000     2.455000000
H    -2.259000000     3.594000000     2.027000000
O    -1.792000000    -0.333000000    -3.604000000
H    -2.702000000    -0.069000000    -3.469000000
H    -1.317000000     0.065000000    -2.874000000
O     6.090000000     2.064000000    -0.734000000
H     5.179000000     2.067000000    -1.027000000
H     6.497000000     1.349000000    -1.223000000
O     0.694000000    -3.639000000     2.386000000
H    -0.231000000    -3.884000000     2.405000000
H     1.056000000    -4.005000000     3.193000000
O    -0.209000000    -3.411000000    -3.636000000
H    -0.890000000    -4.029000000    -3.900000000
H    -0.236000000    -3.420000000    -2.679000000
O    -1.654000000    -4.325000000     4.346000000
H    -2.029000000    -3.465000000     4.155000000
H    -1.031000000    -4.162000000     5.054000000
O    -0.615000000     4.171000000    -3.945000000
H    -0.732000000     5.120000000    -3.980000000
H    -0.216000000     3.948000000    -4.787000000
O     1.738000000     1.791000000     3.456000000
H     1.946000000     2.694000000     3.216000000
H     2.200000000     1.259000000     2.808000000
O    -3.700000000    -1.351000000     5.515000000
H    -2.986000000    -1.556000000     6.118000000
H    -4.018000000    -0.495000000     5.802000000
O    -5.287000000     0.790000000     0.575000000
H    -4.915000000    -0.002000000     0.185000000
H    -5.040000000     0.741000000     1.498000000
O     3.786000000     2.080000000    -2.156000000
H     3.396000000     2.753000000    -1.599000000
H     3.251000000     2.086000000    -2.950000000
O    -4.952000000     0.683000000     6.265000000
H    -5.654000000     1.181000000     6.683000000
H    -4.298000000     1.341000000     6.029000000
O     1.709000000    -5.208000000    -5.074000000
H     2.127000000    -5.900000000    -4.563000000
H     1.061000000    -4.829000000    -4.479000000
O     2.526000000     3.632000000    -0.173000000
H     1.702000000     4.112000000    -0.246000000
H     2.841000000     3.828000000     0.710000000
O     3.738000000     6.120000000    -4.079000000
H     2.991000000     5.726000000    -3.628000000
H     3.469000000     6.162000000    -4.996000000
O     1.999000000    -1.426000000    -3.924000000
H     1.222000000    -1.952000000    -4.114000000
H     2.574000000    -2.016000000    -3.436000000
O    -1.542000000    -2.589000000    -6.163000000
H    -1.484000000    -3.516000000    -6.396000000
H    -1.186000000    -2.542000000    -5.276000000
O    -4.245000000    -3.916000000     2.271000000
H    -5.011000000    -3.395000000     2.030000000
H    -3.520000000    -3.291000000     2.273000000
O    -3.708000000    -1.591000000    -0.014000000
H    -2.972000000    -1.752000000     0.577000000
H    -3.653000000    -2.294000000    -0.661000000
O    -0.069000000     5.724000000     3.767000000
H    -0.814000000     5.244000000     4.129000000
H    -0.435000000     6.212000000     3.030000000
O    -5.467000000    -6.502000000     2.174000000
H    -4.961000000    -5.771000000     2.528000000
H    -5.472000000    -6.353000000     1.228000000
O    -1.480000000     4.114000000     0.257000000
H    -0.618000000     4.464000000     0.033000000
H    -2.097000000     4.764000000    -0.082000000
O    -0.287000000     0.071000000    -6.020000000
H    -0.980000000    -0.102000000    -5.383000000
H    -0.417000000     0.985000000    -6.273000000
O     0.497000000     5.591000000    -0.955000000
H     0.535000000     6.369000000    -0.399000000
H     0.760000000     5.902000000    -1.821000000
