158
-3045.33158
C     0.013000000    -1.458000000    -0.388000000
H    -0.035000000    -2.492000000    -0.720000000
C    -0.013000000    -0.415000000    -1.245000000
H     0.001000000    -0.661000000    -2.304000000
C    -0.053000000     0.924000000    -0.812000000
H    -0.067000000     1.736000000    -1.558000000
C    -0.035000000     1.223000000     0.558000000
H    -0.127000000     2.245000000     0.915000000
C     0.022000000     0.146000000     1.444000000
H     0.123000000     0.349000000     2.507000000
C     0.059000000    -1.184000000     0.974000000
C     0.133000000    -2.317000000     2.029000000
O     0.064000000    -2.026000000     3.210000000
O     0.236000000    -3.457000000     1.649000000
O     1.769000000     2.103000000    -6.503000000
H     1.815000000     1.513000000    -7.254000000
H     1.897000000     2.976000000    -6.875000000
O    -1.576000000     4.391000000     1.768000000
H    -1.983000000     3.602000000     2.127000000
H    -2.304000000     4.999000000     1.641000000
O    -1.943000000     5.287000000    -1.094000000
H    -2.279000000     5.778000000    -0.345000000
H    -1.102000000     4.940000000    -0.796000000
O     1.791000000    -5.315000000    -1.176000000
H     2.450000000    -5.946000000    -1.466000000
H     2.208000000    -4.849000000    -0.451000000
O     2.611000000    -3.918000000     0.943000000
H     1.713000000    -3.650000000     1.137000000
H     3.020000000    -4.024000000     1.801000000
O     0.894000000     6.755000000     0.226000000
H     1.712000000     6.962000000     0.676000000
H     0.404000000     7.577000000     0.226000000
O     2.527000000    -2.671000000     4.278000000
H     3.039000000    -1.977000000     3.863000000
H     1.616000000    -2.426000000     4.116000000
O     3.226000000    -0.825000000    -0.645000000
H     3.693000000    -0.022000000    -0.875000000
H     2.388000000    -0.754000000    -1.102000000
O     3.567000000    -0.255000000    -5.437000000
H     3.178000000    -1.122000000    -5.323000000
H     2.818000000     0.334000000    -5.529000000
O     5.454000000     2.412000000    -3.478000000
H     6.220000000     1.839000000    -3.435000000
H     4.714000000     1.838000000    -3.277000000
O    -2.515000000     1.823000000     2.898000000
H    -3.417000000     1.784000000     3.217000000
H    -2.575000000     1.565000000     1.978000000
O    -4.577000000    -3.058000000     1.787000000
H    -3.747000000    -3.521000000     1.675000000
H    -4.467000000    -2.564000000     2.600000000
O    -5.312000000     4.753000000    -2.463000000
H    -4.858000000     3.986000000    -2.813000000
H    -5.373000000     4.586000000    -1.523000000
O    -3.002000000    -3.543000000     4.353000000
H    -2.954000000    -2.643000000     4.030000000
H    -2.106000000    -3.871000000     4.283000000
O    -3.289000000     0.272000000    -2.803000000
H    -2.766000000     0.229000000    -3.603000000
H    -3.216000000     1.182000000    -2.517000000
O    -0.379000000    -0.270000000     5.226000000
H    -0.374000000    -0.850000000     4.465000000
H    -1.283000000     0.037000000     5.288000000
O     2.768000000     1.965000000     1.875000000
H     3.694000000     2.200000000     1.930000000
H     2.303000000     2.761000000     2.135000000
O    -0.622000000    -6.394000000    -0.695000000
H    -0.786000000    -7.165000000    -1.237000000
H     0.200000000    -6.035000000    -1.031000000
O    -2.915000000     0.839000000     0.300000000
H    -2.037000000     0.552000000     0.050000000
H    -3.486000000     0.115000000     0.044000000
O     0.434000000    -6.191000000     1.580000000
H     0.117000000    -6.336000000     0.688000000
H     0.488000000    -5.239000000     1.664000000
O     1.539000000    -4.314000000    -3.726000000
H     0.708000000    -4.752000000    -3.908000000
H     1.715000000    -4.509000000    -2.805000000
O     0.983000000     2.297000000     7.244000000
H     0.594000000     1.719000000     7.901000000
H     0.869000000     1.829000000     6.416000000
O    -0.557000000    -4.349000000     4.227000000
H    -0.154000000    -4.940000000     3.591000000
H    -0.207000000    -3.486000000     4.006000000
O    -1.826000000     3.480000000     5.813000000
H    -1.310000000     3.302000000     6.599000000
H    -1.235000000     3.278000000     5.087000000
O    -1.078000000     2.051000000    -5.364000000
H    -1.265000000     2.975000000    -5.201000000
H    -0.134000000     2.021000000    -5.518000000
O    -0.278000000    -2.107000000     7.082000000
H     0.644000000    -2.208000000     7.320000000
H    -0.279000000    -1.419000000     6.416000000
O     3.147000000    -0.615000000     2.512000000
H     2.866000000     0.061000000     1.895000000
H     2.960000000    -1.440000000     2.065000000
O     2.115000000    -4.635000000     6.210000000
H     2.141000000    -3.932000000     5.561000000
H     2.275000000    -5.433000000     5.706000000
O     5.436000000     0.946000000     2.299000000
H     5.554000000     0.248000000     1.654000000
H     4.651000000     0.692000000     2.784000000
O    -3.028000000    -0.962000000     3.894000000
H    -3.347000000    -0.803000000     4.782000000
H    -3.545000000    -0.373000000     3.345000000
O    -4.069000000    -1.704000000    -0.617000000
H    -3.464000000    -2.176000000    -1.189000000
H    -4.218000000    -2.299000000     0.117000000
O    -4.876000000     3.166000000     0.073000000
H    -4.657000000     3.558000000     0.918000000
H    -4.294000000     2.410000000     0.000000000
O     2.859000000     2.078000000    -1.058000000
H     2.523000000     2.919000000    -1.370000000
H     2.532000000     2.007000000    -0.162000000
O     3.265000000     4.250000000     3.809000000
H     3.169000000     3.718000000     4.599000000
H     2.369000000     4.383000000     3.500000000
O     1.387000000    -1.792000000    -4.809000000
H     0.469000000    -1.532000000    -4.892000000
H     1.370000000    -2.542000000    -4.214000000
O     0.219000000     2.303000000     4.160000000
H    -0.658000000     2.050000000     3.872000000
H     0.737000000     1.502000000     4.085000000
O    -0.019000000     6.611000000    -3.729000000
H    -0.631000000     7.145000000    -4.237000000
H    -0.075000000     6.963000000    -2.841000000
O    -2.302000000    -4.531000000     0.835000000
H    -1.814000000    -5.232000000     0.403000000
H    -1.631000000    -4.002000000     1.266000000
O    -2.568000000    -3.190000000    -2.800000000
H    -2.489000000    -2.604000000    -3.553000000
H    -1.668000000    -3.454000000    -2.606000000
O    -0.316000000    -8.812000000     2.064000000
H    -0.248000000    -7.860000000     2.003000000
H     0.384000000    -9.064000000     2.666000000
O     1.135000000     4.816000000     2.408000000
H     0.269000000     4.466000000     2.620000000
H     0.981000000     5.406000000     1.671000000
O    -1.404000000     4.649000000    -5.098000000
H    -1.521000000     5.277000000    -5.810000000
H    -0.904000000     5.127000000    -4.437000000
O    -5.902000000     1.376000000    -3.573000000
H    -6.519000000     1.575000000    -2.869000000
H    -5.109000000     1.087000000    -3.122000000
O    -2.868000000     3.382000000    -2.664000000
H    -2.461000000     3.788000000    -3.429000000
H    -2.669000000     3.978000000    -1.942000000
O    -1.775000000    -4.654000000     7.145000000
H    -1.255000000    -3.863000000     7.003000000
H    -2.058000000    -4.916000000     6.269000000
O     4.671000000    -2.927000000    -0.630000000
H     4.157000000    -2.127000000    -0.738000000
H     4.066000000    -3.548000000    -0.224000000
O    -1.713000000    -0.704000000    -4.844000000
H    -2.044000000    -1.050000000    -5.673000000
H    -1.494000000     0.208000000    -5.037000000
O     1.576000000     4.506000000    -1.297000000
H     1.083000000     5.101000000    -0.732000000
H     2.078000000     5.084000000    -1.873000000
