158
-3059.80452
C     0.709000000    -0.954000000    -0.866000000
H     1.249000000    -1.478000000    -1.650000000
C    -0.422000000    -0.267000000    -1.199000000
H    -0.811000000    -0.296000000    -2.214000000
C    -1.097000000     0.477000000    -0.223000000
H    -1.995000000     1.066000000    -0.384000000
C    -0.575000000     0.608000000     1.008000000
H    -1.041000000     1.271000000     1.732000000
C     0.633000000    -0.021000000     1.313000000
H     1.193000000     0.137000000     2.231000000
C     1.319000000    -0.787000000     0.362000000
C     2.744000000    -1.115000000     0.680000000
O     3.161000000    -1.086000000     1.848000000
O     3.464000000    -1.534000000    -0.251000000
O     4.588000000     1.397000000     2.276000000
H     4.221000000     0.515000000     2.221000000
H     4.545000000     1.730000000     1.379000000
O     1.236000000     2.219000000    -1.018000000
H     1.885000000     1.840000000    -1.610000000
H     0.849000000     1.466000000    -0.572000000
O    -5.706000000     3.343000000    -5.667000000
H    -5.864000000     4.234000000    -5.355000000
H    -5.120000000     2.962000000    -5.013000000
O    -6.033000000     0.671000000     3.680000000
H    -5.200000000     1.138000000     3.740000000
H    -6.693000000     1.363000000     3.647000000
O     1.154000000     0.373000000    -4.059000000
H     1.042000000    -0.421000000    -3.537000000
H     2.099000000     0.526000000    -4.062000000
O     4.876000000    -5.519000000    -2.118000000
H     5.624000000    -6.100000000    -1.977000000
H     4.888000000    -4.926000000    -1.366000000
O     3.656000000     0.810000000    -3.320000000
H     3.983000000     1.644000000    -2.980000000
H     4.330000000     0.174000000    -3.081000000
O     5.746000000    -1.115000000    -2.973000000
H     6.084000000    -1.826000000    -3.519000000
H     5.884000000    -1.416000000    -2.075000000
O     0.687000000    -3.417000000    -4.114000000
H     1.145000000    -3.359000000    -4.953000000
H     1.385000000    -3.505000000    -3.466000000
O    -0.879000000     2.088000000     4.652000000
H    -0.432000000     1.310000000     4.987000000
H    -1.266000000     2.494000000     5.428000000
O    -4.112000000     2.346000000    -3.466000000
H    -3.449000000     1.677000000    -3.637000000
H    -3.738000000     2.880000000    -2.765000000
O    -4.873000000     0.477000000    -0.115000000
H    -5.628000000     0.850000000    -0.570000000
H    -4.519000000     1.203000000     0.398000000
O     5.913000000     0.656000000     6.122000000
H     5.138000000     0.334000000     5.661000000
H     6.411000000     1.127000000     5.454000000
O    -1.895000000    -2.198000000    -4.662000000
H    -1.070000000    -2.545000000    -4.323000000
H    -2.559000000    -2.812000000    -4.349000000
O    -0.495000000     1.157000000    -5.934000000
H     0.105000000     0.856000000    -5.252000000
H    -0.165000000     0.755000000    -6.737000000
O    -2.857000000     3.512000000    -1.379000000
H    -1.979000000     3.612000000    -1.010000000
H    -3.359000000     3.079000000    -0.688000000
O    -2.959000000    -1.487000000     2.401000000
H    -3.760000000    -1.916000000     2.100000000
H    -2.252000000    -1.977000000     1.980000000
O     4.699000000    -3.691000000     0.183000000
H     4.650000000    -2.747000000     0.032000000
H     4.598000000    -3.788000000     1.130000000
O     1.839000000    -2.151000000     4.336000000
H     2.360000000    -2.054000000     3.539000000
H     1.309000000    -2.932000000     4.182000000
O     1.622000000    -4.408000000     2.683000000
H     0.692000000    -4.614000000     2.779000000
H     1.823000000    -4.628000000     1.774000000
O     2.977000000    -3.217000000    -2.623000000
H     3.700000000    -3.837000000    -2.720000000
H     3.314000000    -2.547000000    -2.029000000
O    -3.533000000     5.426000000     2.201000000
H    -2.769000000     5.627000000     2.742000000
H    -3.661000000     6.209000000     1.666000000
O    -0.115000000     4.842000000    -3.066000000
H    -0.864000000     4.843000000    -3.661000000
H    -0.204000000     4.028000000    -2.570000000
O     8.018000000    -1.798000000     1.338000000
H     7.319000000    -1.554000000     1.944000000
H     8.683000000    -2.207000000     1.892000000
O    -6.391000000     2.281000000    -1.894000000
H    -6.118000000     3.054000000    -1.399000000
H    -5.753000000     2.214000000    -2.605000000
O     1.857000000    -4.180000000    -0.051000000
H     1.744000000    -4.632000000    -0.887000000
H     2.684000000    -3.707000000    -0.143000000
O     2.464000000     4.397000000     1.890000000
H     1.797000000     3.852000000     2.308000000
H     3.074000000     4.612000000     2.596000000
O    -3.768000000     1.892000000     3.320000000
H    -3.012000000     2.093000000     3.872000000
H    -3.764000000     0.937000000     3.248000000
O    -2.288000000    -1.716000000     5.261000000
H    -2.913000000    -1.697000000     4.536000000
H    -1.649000000    -1.037000000     5.045000000
O     4.868000000    -3.088000000     2.888000000
H     4.337000000    -2.414000000     2.464000000
H     4.745000000    -2.936000000     3.825000000
O    -0.457000000     3.962000000     0.296000000
H     0.347000000     3.513000000     0.036000000
H    -0.393000000     4.036000000     1.248000000
O    -0.003000000     3.991000000     2.926000000
H    -0.367000000     3.282000000     3.457000000
H    -0.239000000     4.790000000     3.399000000
O    -2.700000000     0.212000000    -4.969000000
H    -1.847000000     0.610000000    -5.141000000
H    -2.496000000    -0.674000000    -4.669000000
O    -4.673000000     3.021000000     1.043000000
H    -4.256000000     2.785000000     1.871000000
H    -4.792000000     3.970000000     1.097000000
O     4.842000000     1.216000000    -0.497000000
H     5.675000000     1.163000000    -0.029000000
H     4.581000000     0.304000000    -0.626000000
O     4.561000000     3.686000000     3.925000000
H     4.614000000     2.762000000     3.683000000
H     4.335000000     3.677000000     4.855000000
O     4.054000000    -1.515000000    -5.556000000
H     4.093000000    -0.682000000    -5.086000000
H     4.914000000    -1.910000000    -5.415000000
O     7.313000000     0.795000000     0.556000000
H     7.788000000     0.012000000     0.279000000
H     7.996000000     1.402000000     0.840000000
O    -3.430000000    -2.336000000    -0.758000000
H    -3.801000000    -3.026000000    -0.208000000
H    -3.994000000    -1.578000000    -0.604000000
O    -1.110000000    -4.004000000     3.621000000
H    -0.954000000    -3.500000000     2.823000000
H    -1.441000000    -3.362000000     4.249000000
O     2.932000000     4.433000000    -0.732000000
H     2.205000000     3.838000000    -0.915000000
H     2.906000000     4.559000000     0.217000000
O    -1.027000000    -2.914000000     1.167000000
H    -0.112000000    -2.981000000     0.892000000
H    -1.463000000    -2.468000000     0.441000000
O     0.157000000    -0.298000000     5.814000000
H     1.003000000    -0.617000000     5.500000000
H     0.130000000    -0.561000000     6.734000000
O    -3.865000000    -4.009000000    -2.945000000
H    -3.696000000    -3.509000000    -2.147000000
H    -3.023000000    -4.411000000    -3.159000000
O     3.700000000    -0.157000000     4.990000000
H     3.670000000     0.236000000     4.118000000
H     3.173000000    -0.952000000     4.913000000
O     8.209000000    -2.511000000    -1.185000000
H     8.884000000    -3.190000000    -1.194000000
H     7.972000000    -2.421000000    -0.262000000
O    -5.320000000     4.861000000    -2.305000000
H    -5.567000000     5.415000000    -3.045000000
H    -4.367000000     4.797000000    -2.361000000
O     7.541000000     1.448000000     3.828000000
H     7.247000000     0.835000000     3.155000000
H     8.403000000     1.737000000     3.529000000
