158
-3032.08709
C     0.706000000    -0.543000000    -1.210000000
H     1.162000000    -0.795000000    -2.164000000
C    -0.602000000    -0.010000000    -1.153000000
H    -1.173000000     0.047000000    -2.076000000
C    -1.110000000     0.495000000    -0.052000000
H    -2.035000000     1.012000000    -0.051000000
C    -0.416000000     0.404000000     1.132000000
H    -0.926000000     0.810000000     2.001000000
C     0.901000000    -0.147000000     1.201000000
H     1.510000000    -0.140000000     2.102000000
C     1.462000000    -0.562000000    -0.028000000
C     2.863000000    -1.115000000     0.112000000
O     3.493000000    -0.990000000     1.149000000
O     3.224000000    -1.796000000    -0.776000000
O     6.135000000     1.378000000     4.572000000
H     5.591000000     1.208000000     3.802000000
H     7.019000000     1.489000000     4.221000000
O     2.411000000     3.245000000     1.258000000
H     3.235000000     3.711000000     1.400000000
H     2.672000000     2.414000000     0.861000000
O    -5.720000000     2.390000000     2.062000000
H    -5.671000000     3.276000000     1.703000000
H    -5.827000000     2.519000000     3.004000000
O    -3.841000000     6.130000000    -2.061000000
H    -4.498000000     5.576000000    -2.483000000
H    -3.327000000     5.525000000    -1.526000000
O     1.841000000     0.764000000    -6.696000000
H     2.665000000     0.327000000    -6.907000000
H     1.792000000     0.734000000    -5.740000000
O     4.098000000    -0.383000000    -2.778000000
H     3.748000000    -0.910000000    -2.060000000
H     5.038000000    -0.333000000    -2.603000000
O     5.241000000    -2.488000000     2.934000000
H     5.988000000    -2.467000000     2.336000000
H     4.667000000    -1.787000000     2.624000000
O     0.645000000    -3.179000000    -3.843000000
H     1.275000000    -2.862000000    -4.491000000
H     1.162000000    -3.303000000    -3.047000000
O    -2.751000000     2.433000000    -4.067000000
H    -2.562000000     2.281000000    -4.993000000
H    -1.891000000     2.436000000    -3.646000000
O    -4.451000000     0.142000000     1.075000000
H    -4.673000000     1.062000000     1.217000000
H    -4.128000000     0.110000000     0.174000000
O    -1.727000000    -3.254000000    -2.636000000
H    -0.869000000    -3.135000000    -3.043000000
H    -1.584000000    -3.052000000    -1.712000000
O    -2.625000000     3.636000000     2.797000000
H    -1.808000000     3.700000000     2.303000000
H    -2.472000000     2.928000000     3.422000000
O    -5.335000000     3.427000000     4.647000000
H    -4.526000000     3.434000000     4.137000000
H    -5.399000000     4.311000000     5.009000000
O    -0.355000000     2.917000000    -2.549000000
H     0.082000000     3.653000000    -2.120000000
H     0.358000000     2.335000000    -2.812000000
O     2.597000000    -3.635000000     1.886000000
H     3.105000000    -2.833000000     1.761000000
H     2.205000000    -3.537000000     2.754000000
O     0.612000000    -3.459000000     4.306000000
H     0.463000000    -2.514000000     4.268000000
H     0.102000000    -3.812000000     3.577000000
O    -0.184000000    -4.406000000     1.790000000
H    -0.615000000    -5.234000000     1.578000000
H     0.744000000    -4.630000000     1.858000000
O     1.799000000    -4.026000000    -1.374000000
H     1.448000000    -4.176000000    -0.496000000
H     2.535000000    -3.429000000    -1.238000000
O     2.104000000     1.380000000    -3.976000000
H     2.685000000     0.858000000    -3.422000000
H     2.576000000     2.202000000    -4.110000000
O     5.301000000    -5.833000000    -2.639000000
H     4.348000000    -5.748000000    -2.682000000
H     5.577000000    -5.128000000    -2.053000000
O     6.811000000    -1.304000000     0.856000000
H     5.927000000    -1.244000000     0.493000000
H     7.201000000    -0.447000000     0.680000000
O    -6.554000000     4.452000000    -0.127000000
H    -7.462000000     4.710000000     0.029000000
H    -6.062000000     4.868000000     0.581000000
O     2.555000000    -5.759000000    -3.380000000
H     2.216000000    -5.187000000    -4.068000000
H     2.242000000    -5.365000000    -2.566000000
O    -0.389000000     2.088000000     4.687000000
H    -1.263000000     1.719000000     4.560000000
H    -0.449000000     2.568000000     5.513000000
O    -1.729000000    -2.651000000     0.007000000
H    -1.387000000    -2.986000000     0.836000000
H    -1.423000000    -1.744000000    -0.029000000
O    -2.759000000    -1.542000000     2.466000000
H    -3.210000000    -0.978000000     1.838000000
H    -3.216000000    -2.381000000     2.406000000
O     4.945000000    -4.533000000     4.824000000
H     4.485000000    -4.109000000     5.548000000
H     4.983000000    -3.865000000     4.139000000
O     0.281000000     4.131000000     2.735000000
H     0.920000000     3.790000000     2.109000000
H     0.428000000     3.620000000     3.530000000
O    -4.600000000     5.414000000     1.806000000
H    -3.864000000     4.939000000     2.192000000
H    -4.197000000     6.149000000     1.346000000
O     2.184000000     1.813000000     3.962000000
H     2.467000000     1.607000000     4.853000000
H     1.228000000     1.800000000     4.005000000
O    -0.751000000     5.691000000     0.689000000
H    -0.926000000     6.578000000     1.003000000
H    -0.243000000     5.284000000     1.391000000
O     5.088000000    -3.720000000    -0.793000000
H     4.407000000    -3.076000000    -0.988000000
H     5.058000000    -3.819000000     0.158000000
O    -4.495000000    -1.431000000    -4.400000000
H    -4.106000000    -1.270000000    -3.540000000
H    -4.219000000    -2.320000000    -4.625000000
O    -2.879000000     1.138000000     4.110000000
H    -3.272000000     0.494000000     3.520000000
H    -3.250000000     0.932000000     4.968000000
O    -8.262000000     1.172000000     1.858000000
H    -7.361000000     1.446000000     1.686000000
H    -8.567000000     0.813000000     1.025000000
O     6.445000000     2.196000000    -0.732000000
H     6.773000000     1.407000000    -1.163000000
H     6.798000000     2.148000000     0.157000000
O    -7.017000000     2.213000000    -1.751000000
H    -6.883000000     3.067000000    -1.339000000
H    -6.147000000     1.814000000    -1.765000000
O    -4.639000000    -3.131000000    -0.779000000
H    -4.111000000    -2.607000000    -0.177000000
H    -4.426000000    -4.038000000    -0.559000000
O    -0.270000000    -0.757000000     4.194000000
H    -0.485000000    -0.081000000     4.837000000
H    -0.869000000    -0.594000000     3.466000000
O    -6.954000000    -3.488000000     1.015000000
H    -6.884000000    -4.431000000     0.869000000
H    -6.330000000    -3.103000000     0.400000000
O     4.492000000     0.755000000     2.677000000
H     4.300000000     0.132000000     1.976000000
H     3.656000000     1.188000000     2.849000000
O    -2.600000000     3.657000000    -0.612000000
H    -1.939000000     3.514000000    -1.289000000
H    -2.133000000     4.120000000     0.084000000
O     0.232000000     5.413000000    -1.705000000
H    -0.179000000     5.519000000    -0.847000000
H    -0.159000000     6.101000000    -2.244000000
O    -2.046000000     1.317000000    -6.632000000
H    -1.813000000     1.957000000    -7.305000000
H    -1.378000000     0.636000000    -6.707000000
O    -6.955000000    -0.441000000    -1.769000000
H    -6.560000000    -0.630000000    -0.918000000
H    -7.270000000     0.460000000    -1.692000000
O     2.847000000    -2.093000000    -4.859000000
H     3.029000000    -2.237000000    -5.787000000
H     3.603000000    -1.600000000    -4.540000000
O    -4.359000000     1.700000000    -1.774000000
H    -3.792000000     2.344000000    -1.349000000
H    -4.054000000     1.675000000    -2.681000000
O     8.364000000    -1.342000000     3.516000000
H     9.102000000    -1.641000000     2.984000000
H     7.749000000    -0.969000000     2.884000000
