158
-3047.19619
C     0.119000000     0.845000000    -1.236000000
H     0.087000000     1.436000000    -2.148000000
C    -0.874000000     1.066000000    -0.258000000
H    -1.525000000     1.937000000    -0.243000000
C    -0.765000000     0.211000000     0.931000000
H    -1.494000000     0.344000000     1.750000000
C     0.152000000    -0.850000000     0.987000000
H     0.120000000    -1.485000000     1.869000000
C     1.054000000    -0.977000000    -0.029000000
H     1.811000000    -1.754000000     0.039000000
C     1.041000000    -0.161000000    -1.168000000
C     2.049000000    -0.516000000    -2.254000000
O     2.962000000    -1.269000000    -1.934000000
O     1.896000000    -0.135000000    -3.376000000
O     2.404000000    -5.822000000    -0.374000000
H     3.079000000    -5.752000000    -1.050000000
H     2.707000000    -5.244000000     0.327000000
O     4.346000000     1.436000000    -0.505000000
H     3.846000000     0.634000000    -0.658000000
H     3.801000000     1.948000000     0.092000000
O    -7.433000000     1.131000000     1.681000000
H    -7.544000000     0.719000000     2.537000000
H    -7.376000000     0.399000000     1.067000000
O     6.205000000    -2.729000000    -3.574000000
H     6.816000000    -2.823000000    -4.306000000
H     5.624000000    -2.016000000    -3.838000000
O     3.130000000    -4.077000000     2.161000000
H     3.410000000    -3.601000000     1.380000000
H     3.037000000    -3.402000000     2.833000000
O     2.298000000     1.948000000    -5.073000000
H     2.152000000     1.141000000    -4.579000000
H     2.817000000     1.675000000    -5.829000000
O     5.966000000    -1.793000000     1.835000000
H     5.445000000    -2.264000000     1.185000000
H     6.623000000    -1.324000000     1.320000000
O     0.077000000    -0.962000000    -7.891000000
H    -0.035000000    -0.037000000    -7.670000000
H     0.464000000    -1.350000000    -7.106000000
O    -3.164000000     1.008000000    -6.021000000
H    -3.021000000     0.770000000    -5.105000000
H    -3.634000000     0.262000000    -6.393000000
O    -4.767000000     3.123000000     4.191000000
H    -4.059000000     3.505000000     4.710000000
H    -4.322000000     2.683000000     3.466000000
O     4.391000000    -4.289000000    -6.048000000
H     4.230000000    -3.933000000    -5.175000000
H     3.639000000    -4.002000000    -6.566000000
O    -2.614000000     2.716000000    -3.302000000
H    -2.752000000     1.772000000    -3.389000000
H    -1.927000000     2.916000000    -3.938000000
O    -1.959000000    -1.621000000    -1.613000000
H    -1.404000000    -0.972000000    -1.181000000
H    -2.297000000    -2.161000000    -0.898000000
O    -5.266000000     2.604000000    -2.157000000
H    -5.403000000     1.714000000    -1.831000000
H    -4.434000000     2.560000000    -2.630000000
O    -1.385000000    -2.868000000    -4.204000000
H    -1.276000000    -3.818000000    -4.238000000
H    -1.358000000    -2.658000000    -3.270000000
O    -2.592000000     2.319000000     7.416000000
H    -2.197000000     2.388000000     8.285000000
H    -1.917000000     1.903000000     6.879000000
O    -0.143000000     3.564000000    -4.750000000
H     0.751000000     3.262000000    -4.594000000
H    -0.091000000     4.517000000    -4.673000000
O     3.839000000    -2.970000000    -0.093000000
H     4.183000000    -3.602000000    -0.725000000
H     3.525000000    -2.242000000    -0.630000000
O    -0.728000000    -4.177000000     3.508000000
H    -1.403000000    -3.777000000     4.057000000
H    -1.133000000    -4.248000000     2.644000000
O     0.774000000    -1.624000000    -5.343000000
H    -0.074000000    -1.840000000    -4.956000000
H     1.222000000    -1.113000000    -4.669000000
O     4.752000000    -0.599000000    -4.089000000
H     3.984000000    -0.524000000    -3.522000000
H     5.388000000     0.008000000    -3.712000000
O     2.077000000    -3.729000000    -7.152000000
H     1.532000000    -2.959000000    -6.991000000
H     1.549000000    -4.465000000    -6.841000000
O     4.023000000    -0.145000000     2.444000000
H     4.379000000     0.700000000     2.721000000
H     4.793000000    -0.665000000     2.215000000
O     1.924000000     1.473000000     1.513000000
H     1.660000000     0.881000000     0.808000000
H     2.497000000     0.944000000     2.068000000
O     1.482000000     2.566000000     4.419000000
H     1.327000000     3.309000000     5.003000000
H     2.322000000     2.760000000     4.004000000
O    -2.906000000    -2.841000000     0.907000000
H    -3.656000000    -3.424000000     1.023000000
H    -3.116000000    -2.073000000     1.439000000
O    -2.506000000     4.398000000     5.788000000
H    -1.969000000     4.386000000     6.581000000
H    -2.247000000     3.609000000     5.312000000
O    -2.080000000     1.912000000     4.334000000
H    -1.594000000     2.081000000     3.526000000
H    -2.124000000     0.957000000     4.390000000
O     0.953000000     3.868000000     1.433000000
H     1.306000000     4.177000000     0.599000000
H     1.141000000     2.929000000     1.439000000
O    -4.123000000     1.558000000     2.035000000
H    -3.301000000     2.027000000     1.894000000
H    -4.485000000     1.438000000     1.157000000
O    -2.945000000     5.126000000    -2.018000000
H    -3.884000000     4.977000000    -2.126000000
H    -2.533000000     4.369000000    -2.434000000
O     4.684000000    -4.863000000    -1.811000000
H     5.067000000    -4.316000000    -2.496000000
H     5.372000000    -5.493000000    -1.595000000
O     2.689000000    -3.177000000    -3.941000000
H     3.064000000    -2.467000000    -3.421000000
H     1.915000000    -2.792000000    -4.351000000
O    -3.111000000    -0.041000000    -3.487000000
H    -2.708000000    -0.741000000    -2.974000000
H    -3.928000000     0.154000000    -3.026000000
O     1.812000000    -3.531000000     6.655000000
H     2.389000000    -2.961000000     7.163000000
H     1.846000000    -3.176000000     5.767000000
O    -1.885000000     3.446000000     1.828000000
H    -0.934000000     3.546000000     1.792000000
H    -2.214000000     4.334000000     1.967000000
O     4.742000000     0.979000000    -6.387000000
H     5.682000000     1.154000000    -6.344000000
H     4.606000000     0.252000000    -5.780000000
O     6.339000000     1.342000000    -3.229000000
H     5.639000000     1.895000000    -2.881000000
H     7.146000000     1.792000000    -2.978000000
O    -1.839000000    -0.890000000     4.429000000
H    -1.966000000    -1.637000000     5.015000000
H    -2.522000000    -0.987000000     3.766000000
O     3.104000000    -1.935000000     4.197000000
H     2.516000000    -1.259000000     4.533000000
H     3.567000000    -1.512000000     3.474000000
O     4.372000000     3.389000000    -3.109000000
H     3.762000000     2.794000000    -3.546000000
H     3.831000000     3.872000000    -2.485000000
O    -4.861000000    -0.242000000    -1.189000000
H    -5.533000000    -0.748000000    -0.731000000
H    -4.037000000    -0.526000000    -0.794000000
O     1.145000000    -0.055000000     4.876000000
H     0.235000000    -0.352000000     4.889000000
H     1.121000000     0.774000000     4.398000000
O     7.142000000     0.385000000     0.024000000
H     7.637000000     1.014000000     0.549000000
H     6.435000000     0.900000000    -0.364000000
O    -3.971000000    -0.954000000     2.936000000
H    -4.202000000    -0.033000000     2.818000000
H    -4.785000000    -1.371000000     3.218000000
O    -2.891000000    -3.419000000     5.475000000
H    -3.786000000    -3.089000000     5.556000000
H    -2.748000000    -3.924000000     6.275000000
O    -6.392000000    -1.816000000     0.590000000
H    -6.670000000    -1.986000000     1.491000000
H    -6.714000000    -2.569000000     0.094000000
O     7.739000000    -2.429000000    -0.835000000
H     7.129000000    -2.559000000    -1.561000000
H     8.259000000    -1.668000000    -1.093000000
