158
-3033.16447
C     0.342000000     0.884000000    -1.131000000
H     0.531000000     1.643000000    -1.887000000
C    -0.852000000     0.893000000    -0.395000000
H    -1.530000000     1.733000000    -0.518000000
C    -1.096000000    -0.062000000     0.587000000
H    -1.952000000    -0.018000000     1.156000000
C    -0.125000000    -1.017000000     0.871000000
H    -0.372000000    -1.736000000     1.648000000
C     1.130000000    -0.993000000     0.210000000
H     1.923000000    -1.694000000     0.458000000
C     1.390000000    -0.083000000    -0.810000000
C     2.760000000     0.025000000    -1.399000000
O     3.570000000    -0.824000000    -1.072000000
O     3.114000000     0.833000000    -2.239000000
O     2.058000000    -5.631000000     1.909000000
H     2.620000000    -5.604000000     1.134000000
H     2.029000000    -4.725000000     2.215000000
O     5.874000000     1.015000000    -2.062000000
H     6.086000000     0.975000000    -2.995000000
H     4.920000000     0.943000000    -2.031000000
O     1.028000000     4.615000000     2.544000000
H     0.335000000     4.849000000     3.162000000
H     0.794000000     3.737000000     2.243000000
O     2.209000000    -2.929000000    -2.130000000
H     2.064000000    -2.610000000    -3.021000000
H     2.704000000    -2.230000000    -1.703000000
O     2.568000000    -3.057000000     3.034000000
H     2.764000000    -2.166000000     2.742000000
H     3.423000000    -3.434000000     3.242000000
O     2.652000000     3.715000000    -3.788000000
H     2.667000000     3.032000000    -3.116000000
H     2.624000000     3.235000000    -4.616000000
O     1.689000000    -3.913000000     5.657000000
H     1.625000000    -3.443000000     4.826000000
H     2.407000000    -3.483000000     6.121000000
O     5.680000000    -1.753000000     2.197000000
H     5.538000000    -2.265000000     1.401000000
H     6.070000000    -0.935000000     1.890000000
O     0.124000000    -6.555000000    -0.001000000
H     0.676000000    -6.122000000     0.651000000
H    -0.771000000    -6.356000000     0.274000000
O     1.656000000     3.584000000    -0.654000000
H     1.926000000     2.848000000    -0.106000000
H     2.238000000     4.300000000    -0.398000000
O    -3.469000000     1.638000000    -4.842000000
H    -2.909000000     0.994000000    -4.407000000
H    -3.425000000     2.412000000    -4.281000000
O    -1.921000000    -5.121000000     1.482000000
H    -2.009000000    -4.446000000     2.155000000
H    -2.007000000    -4.647000000     0.655000000
O    -5.051000000     1.474000000    -1.583000000
H    -5.076000000     1.858000000    -0.707000000
H    -4.443000000     2.030000000    -2.071000000
O    -2.013000000    -3.743000000    -0.728000000
H    -1.371000000    -3.984000000    -1.395000000
H    -2.791000000    -3.488000000    -1.224000000
O    -0.636000000     3.918000000    -2.164000000
H    -0.372000000     4.725000000    -2.606000000
H     0.064000000     3.751000000    -1.533000000
O     5.084000000    -2.974000000    -0.247000000
H     4.558000000    -3.726000000    -0.519000000
H     4.582000000    -2.213000000    -0.540000000
O    -2.322000000    -2.141000000     3.543000000
H    -2.463000000    -2.957000000     4.022000000
H    -2.581000000    -2.343000000     2.644000000
O    -0.272000000     0.135000000    -4.860000000
H    -0.397000000     1.064000000    -5.053000000
H    -1.036000000    -0.106000000    -4.336000000
O     3.429000000     0.756000000    -4.856000000
H     3.147000000     0.768000000    -3.941000000
H     2.657000000     1.033000000    -5.349000000
O     1.787000000    -1.831000000    -4.545000000
H     1.292000000    -1.011000000    -4.557000000
H     1.351000000    -2.383000000    -5.193000000
O     3.738000000     1.040000000     1.411000000
H     4.338000000     1.785000000     1.437000000
H     3.978000000     0.567000000     0.613000000
O     0.972000000     1.834000000     2.328000000
H     0.368000000     1.112000000     2.151000000
H     1.841000000     1.463000000     2.170000000
O    -1.966000000     2.068000000     4.897000000
H    -2.496000000     1.576000000     4.271000000
H    -2.078000000     2.983000000     4.640000000
O    -3.821000000    -2.744000000     1.447000000
H    -4.597000000    -3.197000000     1.775000000
H    -4.166000000    -2.076000000     0.854000000
O    -3.246000000    -0.104000000     7.216000000
H    -3.112000000     0.502000000     6.487000000
H    -3.057000000     0.416000000     7.997000000
O    -5.063000000     2.840000000     5.381000000
H    -4.354000000     3.004000000     4.759000000
H    -5.698000000     2.321000000     4.888000000
O    -2.147000000     3.810000000     0.591000000
H    -2.570000000     4.636000000     0.357000000
H    -1.295000000     3.845000000     0.156000000
O    -4.791000000     2.290000000     1.168000000
H    -3.839000000     2.384000000     1.207000000
H    -5.102000000     2.664000000     1.993000000
O    -3.192000000     3.641000000    -2.653000000
H    -3.580000000     4.512000000    -2.573000000
H    -2.265000000     3.772000000    -2.453000000
O     3.343000000    -5.454000000    -1.597000000
H     2.831000000    -4.684000000    -1.845000000
H     3.374000000    -5.987000000    -2.391000000
O     4.610000000    -1.611000000    -4.091000000
H     4.425000000    -0.701000000    -4.323000000
H     3.748000000    -2.005000000    -3.958000000
O    -2.406000000    -0.170000000    -3.269000000
H    -2.191000000    -0.463000000    -2.383000000
H    -2.898000000    -0.898000000    -3.649000000
O    -3.479000000     3.769000000     3.195000000
H    -2.995000000     3.557000000     2.397000000
H    -3.454000000     4.725000000     3.243000000
O     0.693000000     2.760000000     5.323000000
H     1.011000000     2.838000000     4.423000000
H    -0.205000000     2.443000000     5.233000000
O     6.458000000    -3.444000000    -4.753000000
H     5.715000000    -3.136000000    -4.234000000
H     6.959000000    -2.652000000    -4.948000000
O     6.531000000     0.849000000    -4.991000000
H     7.008000000     1.602000000    -5.338000000
H     5.640000000     1.171000000    -4.856000000
O     6.563000000     3.435000000    -2.857000000
H     6.271000000     2.716000000    -2.297000000
H     7.303000000     3.073000000    -3.345000000
O    -3.539000000     0.188000000     3.595000000
H    -3.331000000    -0.736000000     3.453000000
H    -4.343000000     0.176000000     4.114000000
O    -1.007000000     2.856000000    -6.148000000
H    -1.120000000     3.710000000    -5.731000000
H    -1.898000000     2.561000000    -6.337000000
O     1.974000000    -0.715000000     6.230000000
H     1.358000000    -0.442000000     5.550000000
H     2.646000000    -0.034000000     6.233000000
O     1.020000000     6.030000000    -2.968000000
H     1.474000000     5.270000000    -3.331000000
H     0.495000000     6.365000000    -3.696000000
O    -5.678000000    -0.859000000     0.472000000
H    -5.434000000     0.066000000     0.517000000
H    -6.303000000    -0.906000000    -0.252000000
O    -0.590000000    -0.392000000     5.126000000
H    -1.159000000    -0.949000000     4.595000000
H    -1.028000000     0.459000000     5.134000000
O     6.900000000     0.233000000     0.629000000
H     6.251000000     0.864000000     0.938000000
H     6.848000000     0.283000000    -0.326000000
O    -6.385000000     0.673000000     4.208000000
H    -6.902000000     1.134000000     3.548000000
H    -6.944000000    -0.053000000     4.485000000
O     1.596000000     2.068000000    -6.162000000
H     0.809000000     2.611000000    -6.212000000
H     1.578000000     1.546000000    -6.964000000
O    -5.939000000    -3.863000000     4.580000000
H    -6.000000000    -3.658000000     3.647000000
H    -5.000000000    -3.866000000     4.763000000
O     7.313000000    -2.215000000    -2.012000000
H     7.554000000    -2.170000000    -2.938000000
H     6.508000000    -1.702000000    -1.950000000
