158
-3023.14123
C     0.972000000     0.729000000    -0.774000000
H     1.637000000     1.355000000    -1.364000000
C    -0.200000000     1.265000000    -0.237000000
H    -0.593000000     2.222000000    -0.569000000
C    -1.034000000     0.498000000     0.527000000
H    -2.026000000     0.946000000     0.732000000
C    -0.601000000    -0.780000000     0.845000000
H    -1.198000000    -1.479000000     1.425000000
C     0.577000000    -1.306000000     0.282000000
H     0.815000000    -2.334000000     0.545000000
C     1.397000000    -0.562000000    -0.545000000
C     2.614000000    -1.175000000    -1.255000000
O     3.231000000    -2.096000000    -0.743000000
O     3.223000000    -0.300000000    -1.875000000
O     3.519000000     2.330000000     0.323000000
H     2.999000000     2.132000000     1.102000000
H     3.015000000     3.002000000    -0.137000000
O     6.676000000    -4.591000000    -0.560000000
H     6.153000000    -4.206000000     0.143000000
H     6.411000000    -4.111000000    -1.345000000
O     7.529000000    -0.622000000     1.459000000
H     7.999000000    -0.756000000     2.282000000
H     6.697000000    -1.079000000     1.582000000
O     5.831000000     1.496000000    -0.374000000
H     6.171000000     2.030000000    -1.093000000
H     4.894000000     1.690000000    -0.354000000
O    -0.328000000    -6.170000000    -0.562000000
H     0.133000000    -5.598000000    -1.175000000
H     0.215000000    -6.162000000     0.227000000
O    -3.380000000    -1.937000000     3.588000000
H    -3.630000000    -2.195000000     4.475000000
H    -3.369000000    -2.757000000     3.095000000
O     3.093000000     4.269000000    -3.016000000
H     3.546000000     3.429000000    -3.092000000
H     2.528000000     4.308000000    -3.787000000
O     5.422000000    -3.895000000    -4.613000000
H     5.323000000    -4.846000000    -4.650000000
H     5.486000000    -3.697000000    -3.679000000
O     4.113000000    -1.302000000    -4.675000000
H     4.077000000    -1.149000000    -3.731000000
H     4.685000000    -2.064000000    -4.773000000
O    -2.348000000    -0.123000000    -4.470000000
H    -2.416000000    -0.356000000    -3.544000000
H    -1.523000000    -0.515000000    -4.755000000
O    -5.705000000     0.061000000    -2.838000000
H    -4.853000000     0.470000000    -2.689000000
H    -5.877000000    -0.434000000    -2.037000000
O    -3.758000000    -2.359000000    -0.954000000
H    -3.707000000    -1.942000000    -0.094000000
H    -4.684000000    -2.304000000    -1.191000000
O    -3.455000000    -3.847000000     1.667000000
H    -2.597000000    -4.190000000     1.918000000
H    -3.743000000    -4.420000000     0.955000000
O    -2.088000000     3.938000000     1.485000000
H    -2.379000000     4.661000000     2.040000000
H    -2.898000000     3.554000000     1.148000000
O     4.642000000    -0.714000000     0.985000000
H     4.066000000    -1.130000000     0.343000000
H     5.034000000     0.021000000     0.513000000
O    -3.521000000     1.598000000    -2.165000000
H    -3.482000000     1.999000000    -1.296000000
H    -2.764000000     1.954000000    -2.628000000
O     7.318000000    -0.935000000    -1.270000000
H     7.667000000    -0.979000000    -0.379000000
H     7.201000000     0.001000000    -1.435000000
O    -5.594000000     4.281000000     3.976000000
H    -5.464000000     3.334000000     4.017000000
H    -6.156000000     4.478000000     4.725000000
O    -1.300000000    -4.790000000     2.712000000
H    -0.609000000    -4.153000000     2.891000000
H    -0.865000000    -5.640000000     2.777000000
O     1.576000000     1.300000000     2.338000000
H     1.019000000     0.933000000     1.651000000
H     1.057000000     2.012000000     2.712000000
O    -4.854000000    -0.398000000     1.541000000
H    -4.416000000    -1.061000000     2.075000000
H    -5.666000000    -0.819000000     1.256000000
O     3.287000000     5.858000000     0.390000000
H     2.919000000     6.735000000     0.279000000
H     2.710000000     5.290000000    -0.121000000
O    -1.254000000     0.078000000     6.482000000
H    -1.029000000     0.090000000     7.412000000
H    -1.772000000     0.872000000     6.350000000
O    -1.313000000     3.376000000    -2.920000000
H    -1.309000000     4.146000000    -3.488000000
H    -0.891000000     3.671000000    -2.113000000
O    -2.779000000     2.423000000     5.916000000
H    -3.516000000     2.059000000     6.406000000
H    -3.029000000     3.332000000     5.748000000
O     0.947000000    -4.941000000     5.401000000
H     1.094000000    -4.586000000     4.524000000
H     1.816000000    -4.952000000     5.804000000
O     0.173000000     3.407000000     3.283000000
H    -0.434000000     3.486000000     2.547000000
H    -0.125000000     4.065000000     3.911000000
O    -4.176000000     2.271000000     0.598000000
H    -4.389000000     1.377000000     0.865000000
H    -4.966000000     2.585000000     0.158000000
O     1.451000000    -4.126000000    -1.496000000
H     2.178000000    -3.536000000    -1.298000000
H     1.133000000    -3.836000000    -2.351000000
O    -0.557000000    -1.805000000     4.639000000
H    -0.793000000    -1.231000000     5.369000000
H    -1.319000000    -1.781000000     4.060000000
O    -1.509000000    -0.992000000    -2.025000000
H    -2.117000000    -1.440000000    -1.437000000
H    -1.059000000    -0.358000000    -1.467000000
O    -5.939000000     3.807000000    -0.954000000
H    -5.360000000     4.469000000    -1.331000000
H    -6.460000000     4.283000000    -0.308000000
O     1.240000000    -3.099000000     3.277000000
H     1.929000000    -2.459000000     3.099000000
H     0.687000000    -2.679000000     3.935000000
O    -0.515000000     5.438000000    -0.903000000
H    -0.438000000     6.292000000    -1.329000000
H    -0.483000000     5.634000000     0.033000000
O     1.762000000     4.163000000    -0.757000000
H     0.870000000     4.507000000    -0.799000000
H     2.028000000     4.075000000    -1.673000000
O    -5.386000000     1.512000000     4.130000000
H    -4.730000000     1.248000000     3.485000000
H    -6.179000000     1.044000000     3.870000000
O     4.170000000     1.816000000    -3.249000000
H     3.787000000     0.980000000    -2.983000000
H     5.068000000     1.784000000    -2.918000000
O     3.137000000    -0.656000000     3.125000000
H     3.657000000    -0.722000000     2.325000000
H     2.661000000     0.169000000     3.036000000
O    -3.356000000     5.676000000     3.092000000
H    -4.047000000     5.014000000     3.065000000
H    -3.773000000     6.442000000     3.486000000
O    -0.385000000    -2.986000000    -3.430000000
H    -0.715000000    -2.316000000    -2.832000000
H    -0.262000000    -2.525000000    -4.261000000
O    -6.524000000    -1.831000000    -0.913000000
H    -6.839000000    -2.638000000    -1.320000000
H    -6.819000000    -1.889000000    -0.005000000
O     1.144000000     1.887000000     5.422000000
H     1.073000000     2.348000000     4.586000000
H     0.453000000     1.225000000     5.389000000
O     5.201000000    -5.423000000     2.561000000
H     4.759000000    -4.871000000     1.917000000
H     4.717000000    -6.249000000     2.541000000
O     3.440000000    -4.183000000     0.925000000
H     2.564000000    -4.568000000     0.961000000
H     3.336000000    -3.401000000     0.384000000
O     2.003000000     0.070000000    -5.926000000
H     2.493000000     0.892000000    -5.930000000
H     2.590000000    -0.557000000    -5.503000000
O    -7.234000000    -1.705000000     1.564000000
H    -8.150000000    -1.971000000     1.490000000
H    -7.195000000    -1.205000000     2.379000000
O     5.445000000    -2.836000000    -2.046000000
H     4.656000000    -2.477000000    -1.639000000
H     6.053000000    -2.097000000    -2.082000000
O     3.124000000     2.543000000    -5.480000000
H     3.458000000     3.421000000    -5.666000000
H     3.731000000     2.188000000    -4.831000000
