158
-3057.41906
C    -0.141000000    -0.866000000     1.208000000
H    -0.270000000    -1.584000000     2.015000000
C     0.776000000    -1.144000000     0.123000000
H     1.280000000    -2.105000000     0.061000000
C     0.830000000    -0.193000000    -0.934000000
H     1.349000000    -0.447000000    -1.835000000
C     0.099000000     0.918000000    -0.840000000
H     0.155000000     1.590000000    -1.693000000
C    -0.747000000     1.189000000     0.234000000
H    -1.321000000     2.110000000     0.179000000
C    -0.965000000     0.296000000     1.258000000
C    -1.978000000     0.536000000     2.443000000
O    -2.581000000     1.610000000     2.558000000
O    -2.375000000    -0.416000000     3.071000000
O    -7.085000000    -0.628000000     2.154000000
H    -6.483000000    -0.262000000     2.803000000
H    -6.896000000    -1.566000000     2.155000000
O     5.079000000    -4.146000000    -4.299000000
H     4.806000000    -3.782000000    -5.142000000
H     4.259000000    -4.316000000    -3.836000000
O     2.218000000     3.347000000    -0.831000000
H     2.514000000     2.619000000    -0.285000000
H     3.009000000     3.643000000    -1.283000000
O    -0.897000000    -5.394000000     1.440000000
H    -0.881000000    -5.348000000     2.396000000
H    -1.713000000    -4.960000000     1.193000000
O    -2.196000000    -0.286000000    -1.928000000
H    -1.440000000    -0.185000000    -1.351000000
H    -2.191000000     0.503000000    -2.470000000
O     6.250000000     1.398000000     0.998000000
H     5.485000000     0.823000000     1.030000000
H     5.888000000     2.282000000     1.053000000
O     0.040000000    -1.186000000     7.028000000
H    -0.584000000    -0.635000000     6.556000000
H     0.551000000    -1.613000000     6.340000000
O    -3.936000000     3.166000000     1.189000000
H    -3.367000000     2.552000000     1.653000000
H    -3.344000000     3.850000000     0.875000000
O    -2.247000000    -2.802000000     7.094000000
H    -2.709000000    -2.630000000     6.273000000
H    -1.391000000    -2.388000000     6.978000000
O     2.252000000     1.212000000     1.267000000
H     1.622000000     0.819000000     0.664000000
H     1.786000000     1.264000000     2.101000000
O    -1.869000000    -3.994000000    -1.493000000
H    -2.634000000    -4.043000000    -2.066000000
H    -2.231000000    -4.036000000    -0.608000000
O    -0.808000000     2.820000000     6.260000000
H    -1.251000000     1.976000000     6.344000000
H     0.112000000     2.628000000     6.443000000
O    -4.338000000    -1.872000000    -1.546000000
H    -4.367000000    -1.727000000    -0.600000000
H    -3.561000000    -1.395000000    -1.837000000
O     0.468000000     3.294000000    -6.761000000
H     1.127000000     3.693000000    -7.329000000
H     0.946000000     3.067000000    -5.963000000
O    -4.913000000    -0.119000000     3.949000000
H    -5.024000000     0.096000000     4.875000000
H    -3.965000000    -0.150000000     3.822000000
O     3.685000000    -2.754000000    -1.712000000
H     3.493000000    -2.539000000    -2.625000000
H     3.986000000    -1.930000000    -1.330000000
O     5.076000000     2.480000000    -5.034000000
H     4.794000000     2.146000000    -4.182000000
H     5.714000000     3.163000000    -4.824000000
O    -0.988000000     3.446000000     3.359000000
H    -1.041000000     3.395000000     4.313000000
H    -1.590000000     2.769000000     3.049000000
O     2.222000000    -5.234000000    -3.759000000
H     1.545000000    -4.573000000    -3.612000000
H     1.796000000    -6.064000000    -3.543000000
O    -4.416000000     1.416000000    -0.933000000
H    -3.849000000     0.725000000    -0.590000000
H    -4.342000000     2.126000000    -0.294000000
O     0.056000000     0.331000000    -4.545000000
H     0.135000000    -0.117000000    -5.387000000
H    -0.837000000     0.674000000    -4.539000000
O     1.546000000     2.797000000    -4.086000000
H     2.401000000     2.540000000    -4.430000000
H     1.106000000     1.969000000    -3.894000000
O    -3.865000000     1.478000000     6.310000000
H    -4.046000000     2.036000000     5.553000000
H    -4.427000000     1.824000000     7.003000000
O     4.418000000    -0.778000000     0.361000000
H     4.283000000    -1.514000000     0.957000000
H     3.629000000    -0.244000000     0.458000000
O    -3.243000000    -2.511000000     4.694000000
H    -4.182000000    -2.388000000     4.554000000
H    -2.831000000    -2.097000000     3.935000000
O    -1.732000000     0.176000000     5.798000000
H    -1.982000000    -0.054000000     4.903000000
H    -2.520000000     0.571000000     6.172000000
O     4.266000000     0.266000000    -3.067000000
H     4.220000000     0.409000000    -2.122000000
H     5.093000000    -0.196000000    -3.201000000
O     2.858000000    -1.789000000    -4.361000000
H     3.099000000    -0.889000000    -4.144000000
H     2.156000000    -1.701000000    -5.005000000
O     2.493000000    -2.753000000     2.217000000
H     3.117000000    -3.395000000     2.555000000
H     2.331000000    -3.028000000     1.314000000
O     0.281000000    -3.269000000    -3.148000000
H    -0.488000000    -3.124000000    -2.598000000
H     0.806000000    -2.476000000    -3.040000000
O     6.727000000    -1.334000000    -3.263000000
H     6.789000000    -1.725000000    -4.135000000
H     6.876000000    -2.064000000    -2.662000000
O    -1.210000000    -4.646000000     4.106000000
H    -0.380000000    -4.234000000     4.343000000
H    -1.879000000    -4.061000000     4.462000000
O     0.465000000    -5.608000000    -1.195000000
H     0.074000000    -5.561000000    -0.322000000
H    -0.170000000    -5.174000000    -1.765000000
O    -4.299000000    -1.052000000     1.239000000
H    -5.084000000    -0.998000000     1.783000000
H    -3.592000000    -0.749000000     1.809000000
O     1.374000000    -1.966000000     4.845000000
H     1.440000000    -2.219000000     3.924000000
H     2.109000000    -1.369000000     4.983000000
O     0.069000000     4.704000000    -1.652000000
H    -0.033000000     4.176000000    -2.443000000
H     0.865000000     4.368000000    -1.241000000
O    -2.852000000     1.178000000    -4.486000000
H    -3.759000000     1.260000000    -4.193000000
H    -2.711000000     1.943000000    -5.045000000
O    -0.125000000     5.661000000     2.071000000
H    -0.421000000     4.853000000     2.490000000
H     0.696000000     5.874000000     2.514000000
O    -4.425000000     3.125000000     4.072000000
H    -5.203000000     3.290000000     3.539000000
H    -3.846000000     2.621000000     3.500000000
O    -2.307000000     5.049000000     0.335000000
H    -1.468000000     4.993000000     0.793000000
H    -2.333000000     5.941000000    -0.010000000
O     1.247000000     1.142000000     4.107000000
H     1.776000000     1.236000000     4.899000000
H     0.617000000     1.861000000     4.152000000
O     1.072000000    -1.610000000    -6.498000000
H     0.710000000    -1.187000000    -7.277000000
H     0.401000000    -2.239000000    -6.234000000
O    -6.889000000     3.102000000     0.987000000
H    -7.059000000     3.207000000     1.923000000
H    -6.014000000     2.716000000     0.944000000
O     3.127000000    -5.836000000     2.124000000
H     2.942000000    -5.462000000     1.263000000
H     2.746000000    -6.713000000     2.091000000
O    -3.263000000    -4.106000000     0.812000000
H    -4.047000000    -4.639000000     0.680000000
H    -3.596000000    -3.218000000     0.938000000
O     3.223000000    -5.173000000    -0.597000000
H     2.544000000    -5.541000000    -1.161000000
H     3.395000000    -4.305000000    -0.964000000
O    -1.096000000    -3.387000000    -5.997000000
H    -2.041000000    -3.354000000    -5.852000000
H    -0.725000000    -3.517000000    -5.124000000
O     3.090000000     1.265000000    -6.481000000
H     3.353000000     0.423000000    -6.854000000
H     3.896000000     1.626000000    -6.114000000
