158
-3002.14693
C     1.382000000    -0.173000000    -0.445000000
H     2.430000000    -0.245000000    -0.725000000
C     0.826000000     1.008000000     0.031000000
H     1.448000000     1.898000000     0.081000000
C    -0.524000000     1.086000000     0.360000000
H    -0.928000000     2.052000000     0.736000000
C    -1.233000000    -0.111000000     0.403000000
H    -2.232000000    -0.179000000     0.828000000
C    -0.709000000    -1.314000000    -0.099000000
H    -1.268000000    -2.244000000    -0.044000000
C     0.589000000    -1.303000000    -0.584000000
C     1.227000000    -2.567000000    -1.199000000
O     0.526000000    -3.471000000    -1.575000000
O     2.406000000    -2.710000000    -1.234000000
O    -2.105000000     4.949000000     1.031000000
H    -1.264000000     4.865000000     0.582000000
H    -2.130000000     4.205000000     1.633000000
O     0.604000000    -5.209000000     0.685000000
H     0.349000000    -4.418000000     1.159000000
H     0.664000000    -4.932000000    -0.229000000
O    -4.699000000     3.336000000    -0.219000000
H    -3.775000000     3.126000000    -0.088000000
H    -4.750000000     3.639000000    -1.126000000
O     0.383000000     1.759000000     5.785000000
H     0.449000000     2.674000000     5.509000000
H     0.212000000     1.805000000     6.726000000
O     1.837000000    -4.600000000    -3.537000000
H     2.199000000    -3.907000000    -4.088000000
H     1.341000000    -4.136000000    -2.862000000
O    -3.558000000    -5.030000000     2.131000000
H    -2.753000000    -5.177000000     2.628000000
H    -4.055000000    -5.842000000     2.234000000
O     3.102000000    -2.531000000    -4.848000000
H     3.049000000    -1.576000000    -4.858000000
H     3.978000000    -2.726000000    -5.181000000
O    -1.068000000    -5.625000000     3.314000000
H    -1.037000000    -6.038000000     4.176000000
H    -0.290000000    -5.069000000     3.286000000
O     2.464000000     2.531000000    -2.797000000
H     3.298000000     2.751000000    -3.212000000
H     1.956000000     3.341000000    -2.837000000
O     2.100000000    -5.861000000     2.795000000
H     1.528000000    -5.615000000     2.068000000
H     2.670000000    -6.539000000     2.432000000
O    -1.652000000    -7.036000000    -0.216000000
H    -0.821000000    -6.577000000    -0.097000000
H    -2.132000000    -6.879000000     0.597000000
O    -2.307000000    -5.934000000    -2.544000000
H    -1.956000000    -6.134000000    -1.676000000
H    -3.160000000    -5.534000000    -2.371000000
O    -4.579000000    -1.645000000    -0.292000000
H    -5.322000000    -2.170000000    -0.587000000
H    -4.251000000    -1.225000000    -1.088000000
O    -1.596000000    -1.504000000    -5.562000000
H    -2.438000000    -1.048000000    -5.551000000
H    -1.576000000    -1.989000000    -4.737000000
O    -5.143000000     0.202000000     1.658000000
H    -4.937000000    -0.514000000     1.056000000
H    -6.090000000     0.146000000     1.781000000
O     2.936000000     3.945000000     0.264000000
H     2.697000000     3.042000000     0.058000000
H     3.874000000     3.993000000     0.079000000
O     2.331000000     6.284000000     1.532000000
H     2.294000000     5.451000000     1.060000000
H     1.566000000     6.269000000     2.105000000
O    -4.351000000    -0.593000000    -3.120000000
H    -4.894000000    -0.944000000    -3.826000000
H    -3.526000000    -1.074000000    -3.190000000
O    -2.001000000     3.777000000    -2.246000000
H    -1.170000000     4.139000000    -1.939000000
H    -1.749000000     3.078000000    -2.849000000
O     3.980000000    -4.767000000    -1.227000000
H     3.410000000    -5.251000000    -1.825000000
H     3.515000000    -3.946000000    -1.065000000
O     3.652000000    -2.048000000     1.376000000
H     2.823000000    -1.611000000     1.569000000
H     3.545000000    -2.382000000     0.485000000
O    -6.312000000     4.385000000     1.962000000
H    -7.116000000     3.866000000     1.943000000
H    -5.758000000     3.992000000     1.288000000
O    -2.716000000     2.691000000     2.951000000
H    -3.477000000     2.161000000     3.185000000
H    -2.489000000     3.154000000     3.757000000
O     3.439000000     1.503000000     2.163000000
H     3.571000000     2.439000000     2.017000000
H     3.086000000     1.446000000     3.051000000
O    -0.112000000    -3.098000000     2.280000000
H     0.285000000    -2.333000000     2.696000000
H    -1.049000000    -2.900000000     2.261000000
O    -7.223000000     1.905000000    -0.406000000
H    -7.351000000     1.052000000     0.009000000
H    -6.315000000     2.135000000    -0.206000000
O    -4.777000000     1.186000000     4.302000000
H    -5.375000000     1.902000000     4.517000000
H    -4.725000000     1.198000000     3.346000000
O    -4.434000000    -1.660000000     4.491000000
H    -3.782000000    -1.763000000     3.798000000
H    -4.698000000    -0.742000000     4.438000000
O    -2.469000000     4.540000000     5.009000000
H    -2.664000000     4.251000000     5.901000000
H    -1.513000000     4.538000000     4.961000000
O    -4.687000000     4.933000000    -2.517000000
H    -4.868000000     5.437000000    -3.311000000
H    -3.865000000     4.480000000    -2.704000000
O     1.810000000    -0.010000000    -3.713000000
H     1.670000000    -0.684000000    -3.049000000
H     1.977000000     0.789000000    -3.213000000
O     2.459000000    -7.206000000    -2.678000000
H     2.277000000    -7.697000000    -3.480000000
H     2.126000000    -6.326000000    -2.856000000
O     4.503000000    -4.336000000     3.268000000
H     3.814000000    -4.388000000     2.606000000
H     4.263000000    -3.581000000     3.805000000
O    -3.060000000    -2.330000000     2.319000000
H    -3.269000000    -3.260000000     2.402000000
H    -3.451000000    -2.070000000     1.485000000
O     0.273000000     4.830000000    -0.696000000
H     1.104000000     4.550000000    -0.313000000
H     0.499000000     5.099000000    -1.587000000
O     0.614000000    -0.769000000     3.233000000
H    -0.196000000    -0.910000000     3.722000000
H     0.382000000    -0.125000000     2.564000000
O     6.734000000    -3.791000000    -1.359000000
H     5.848000000    -4.152000000    -1.335000000
H     6.611000000    -2.847000000    -1.259000000
O     6.152000000     1.343000000     2.592000000
H     5.251000000     1.290000000     2.272000000
H     6.691000000     1.266000000     1.805000000
O     0.345000000     4.521000000     5.508000000
H     1.281000000     4.464000000     5.699000000
H     0.231000000     5.388000000     5.120000000
O    -4.359000000    -4.733000000    -1.625000000
H    -5.120000000    -5.139000000    -1.210000000
H    -4.651000000    -3.849000000    -1.847000000
O    -0.892000000    -5.274000000    -4.666000000
H    -1.368000000    -5.351000000    -3.839000000
H     0.014000000    -5.486000000    -4.442000000
O     6.447000000    -2.335000000     1.333000000
H     6.745000000    -1.461000000     1.081000000
H     5.491000000    -2.280000000     1.303000000
O    -1.660000000     7.328000000     2.185000000
H    -2.051000000     8.026000000     1.659000000
H    -1.895000000     6.522000000     1.726000000
O     5.122000000     0.953000000    -2.021000000
H     5.038000000     1.206000000    -2.941000000
H     4.852000000     0.035000000    -2.000000000
O    -3.612000000     6.799000000    -0.765000000
H    -3.708000000     6.301000000    -1.577000000
H    -2.906000000     6.356000000    -0.294000000
O     4.690000000    -1.819000000    -2.189000000
H     3.891000000    -2.204000000    -1.829000000
H     4.663000000    -2.039000000    -3.120000000
O     5.699000000     2.879000000     0.189000000
H     5.508000000     2.423000000    -0.630000000
H     6.522000000     3.338000000     0.021000000
O    -1.726000000    -2.593000000    -3.163000000
H    -0.997000000    -2.625000000    -2.543000000
H    -2.217000000    -3.398000000    -2.997000000
