158
-3010.90529
C     1.430000000    -0.310000000    -0.129000000
H     2.496000000    -0.468000000    -0.269000000
C     0.858000000     0.883000000     0.274000000
H     1.452000000     1.723000000     0.626000000
C    -0.518000000     1.059000000     0.272000000
H    -1.014000000     2.041000000     0.513000000
C    -1.342000000    -0.008000000    -0.002000000
H    -2.422000000     0.114000000     0.022000000
C    -0.778000000    -1.273000000    -0.263000000
H    -1.471000000    -2.103000000    -0.371000000
C     0.625000000    -1.434000000    -0.342000000
C     1.253000000    -2.719000000    -0.781000000
O     0.702000000    -3.822000000    -0.672000000
O     2.383000000    -2.680000000    -1.204000000
O    -3.919000000     7.139000000     0.768000000
H    -3.747000000     6.282000000     0.378000000
H    -3.829000000     7.755000000     0.041000000
O     1.630000000     6.465000000     1.810000000
H     2.303000000     6.342000000     2.480000000
H     2.026000000     6.124000000     1.008000000
O     1.806000000    -5.478000000     1.364000000
H     1.040000000    -5.154000000     1.840000000
H     1.897000000    -4.880000000     0.622000000
O    -3.986000000     3.198000000    -2.612000000
H    -4.217000000     2.291000000    -2.411000000
H    -3.038000000     3.180000000    -2.741000000
O     2.505000000     3.236000000    -3.165000000
H     1.813000000     3.333000000    -3.819000000
H     2.741000000     2.309000000    -3.202000000
O     2.231000000    -3.607000000    -4.171000000
H     2.884000000    -3.207000000    -4.744000000
H     2.506000000    -3.362000000    -3.287000000
O    -0.410000000     0.644000000    -2.746000000
H    -0.851000000     1.493000000    -2.757000000
H    -0.503000000     0.337000000    -1.844000000
O     3.801000000    -7.137000000     1.437000000
H     3.295000000    -6.326000000     1.478000000
H     3.378000000    -7.716000000     2.071000000
O     0.109000000     4.665000000    -1.417000000
H     1.050000000     4.490000000    -1.432000000
H    -0.158000000     4.459000000    -0.521000000
O    -4.878000000    -1.841000000    -0.362000000
H    -5.321000000    -1.644000000     0.463000000
H    -4.554000000    -2.735000000    -0.251000000
O     1.008000000    -1.502000000    -6.139000000
H     1.144000000    -0.610000000    -5.820000000
H     1.300000000    -2.060000000    -5.418000000
O    -5.162000000     0.897000000    -0.972000000
H    -4.982000000     0.000000000    -0.692000000
H    -5.463000000     1.339000000    -0.178000000
O     3.895000000     0.998000000     4.901000000
H     3.005000000     1.177000000     4.600000000
H     4.456000000     1.310000000     4.190000000
O    -0.227000000     4.362000000     2.139000000
H     0.331000000     3.601000000     2.296000000
H     0.386000000     5.082000000     1.989000000
O     1.554000000    -5.990000000    -1.858000000
H     1.305000000    -6.708000000    -1.276000000
H     1.136000000    -5.217000000    -1.477000000
O    -5.835000000    -1.521000000     2.198000000
H    -6.173000000    -0.651000000     2.410000000
H    -5.668000000    -1.927000000     3.049000000
O    -3.793000000     4.630000000    -0.232000000
H    -3.784000000     4.259000000    -1.114000000
H    -4.090000000     3.912000000     0.327000000
O    -4.394000000     5.196000000     2.694000000
H    -4.159000000     5.906000000     2.096000000
H    -3.673000000     5.164000000     3.323000000
O     4.968000000    -0.172000000     1.219000000
H     4.356000000    -0.861000000     1.479000000
H     4.919000000     0.471000000     1.926000000
O    -1.243000000    -5.570000000     2.121000000
H    -1.407000000    -6.487000000     1.903000000
H    -2.112000000    -5.168000000     2.138000000
O    -1.355000000     3.357000000    -3.359000000
H    -0.818000000     3.832000000    -2.725000000
H    -1.000000000     3.608000000    -4.211000000
O    -1.718000000     7.299000000     4.069000000
H    -1.409000000     7.693000000     3.253000000
H    -1.582000000     6.359000000     3.947000000
O    -2.863000000    -2.457000000    -3.362000000
H    -2.514000000    -1.710000000    -2.877000000
H    -2.981000000    -3.138000000    -2.700000000
O    -2.919000000     1.506000000     2.788000000
H    -2.707000000     1.072000000     3.614000000
H    -2.125000000     1.420000000     2.260000000
O    -0.688000000    -4.027000000     4.283000000
H    -1.628000000    -4.199000000     4.340000000
H    -0.496000000    -4.056000000     3.346000000
O    -1.951000000     4.530000000     4.158000000
H    -1.559000000     3.941000000     4.802000000
H    -1.495000000     4.329000000     3.341000000
O    -1.287000000     7.152000000    -1.978000000
H    -1.596000000     7.072000000    -2.880000000
H    -0.733000000     6.384000000    -1.845000000
O     3.337000000    -6.584000000    -3.751000000
H     2.844000000    -6.436000000    -4.558000000
H     2.670000000    -6.609000000    -3.064000000
O     1.566000000     0.907000000    -4.633000000
H     0.919000000     0.905000000    -3.928000000
H     1.288000000     1.618000000    -5.211000000
O    -4.972000000     2.792000000     1.200000000
H    -5.157000000     3.579000000     1.712000000
H    -4.637000000     2.163000000     1.839000000
O     5.037000000     4.654000000     1.657000000
H     5.462000000     5.357000000     1.165000000
H     4.728000000     4.045000000     0.986000000
O    -5.796000000     5.857000000    -1.822000000
H    -5.056000000     5.384000000    -1.441000000
H    -5.737000000     5.679000000    -2.760000000
O     4.963000000    -4.007000000     2.587000000
H     4.073000000    -3.657000000     2.619000000
H     4.973000000    -4.699000000     3.248000000
O     0.984000000     3.751000000     5.733000000
H     1.125000000     4.698000000     5.722000000
H     1.174000000     3.491000000     6.634000000
O     2.709000000     5.148000000    -0.587000000
H     2.967000000     5.572000000    -1.405000000
H     3.494000000     4.682000000    -0.300000000
O     4.279000000    -4.571000000    -1.849000000
H     3.511000000    -4.072000000    -1.571000000
H     3.928000000    -5.247000000    -2.429000000
O     1.071000000    -7.891000000     0.016000000
H     1.657000000    -8.530000000     0.421000000
H     1.310000000    -7.057000000     0.421000000
O     7.184000000     1.526000000    -0.394000000
H     6.722000000     0.946000000     0.211000000
H     6.726000000     1.416000000    -1.228000000
O     1.693000000     2.164000000     3.590000000
H     1.202000000     1.344000000     3.541000000
H     1.240000000     2.674000000     4.262000000
O    -3.867000000    -4.510000000     0.245000000
H    -4.164000000    -5.040000000     0.985000000
H    -4.400000000    -4.807000000    -0.492000000
O    -0.457000000    -5.321000000    -3.643000000
H    -1.104000000    -4.832000000    -3.135000000
H     0.371000000    -4.875000000    -3.469000000
O     2.785000000    -2.250000000     2.045000000
H     2.737000000    -2.307000000     2.999000000
H     1.886000000    -2.065000000     1.771000000
O     6.097000000    -5.373000000    -0.034000000
H     5.667000000    -4.894000000    -0.743000000
H     5.381000000    -5.805000000     0.431000000
O     5.892000000     1.002000000    -2.886000000
H     6.137000000     1.106000000    -3.805000000
H     5.380000000     0.193000000    -2.864000000
O    -4.969000000     2.927000000     5.135000000
H    -4.950000000     3.853000000     5.378000000
H    -4.179000000     2.801000000     4.611000000
O     4.265000000    -0.850000000    -2.093000000
H     3.609000000    -1.506000000    -1.856000000
H     4.875000000    -0.844000000    -1.355000000
O     4.261000000     2.735000000    -0.173000000
H     4.297000000     2.376000000    -1.059000000
H     3.916000000     2.020000000     0.361000000
O    -1.978000000    -4.270000000    -1.565000000
H    -1.144000000    -4.156000000    -1.110000000
H    -2.638000000    -4.212000000    -0.874000000
