158
-3017.22955
C     1.410000000     0.159000000    -0.469000000
H     2.395000000     0.466000000    -0.811000000
C     0.405000000     1.157000000    -0.446000000
H     0.604000000     2.193000000    -0.710000000
C    -0.835000000     0.834000000     0.010000000
H    -1.531000000     1.598000000     0.185000000
C    -1.194000000    -0.449000000     0.452000000
H    -2.158000000    -0.580000000     0.936000000
C    -0.158000000    -1.350000000     0.521000000
H    -0.354000000    -2.367000000     0.853000000
C     1.146000000    -1.123000000    -0.002000000
C     2.233000000    -2.126000000     0.053000000
O     1.871000000    -3.248000000     0.501000000
O     3.258000000    -1.925000000    -0.468000000
O     2.225000000    -3.732000000     3.232000000
H     1.349000000    -3.435000000     3.476000000
H     2.307000000    -3.505000000     2.306000000
O    -1.042000000     3.414000000    -2.438000000
H    -0.998000000     3.563000000    -3.383000000
H    -0.206000000     3.741000000    -2.105000000
O     2.937000000    -2.398000000    -2.983000000
H     3.732000000    -2.828000000    -3.297000000
H     3.082000000    -2.280000000    -2.044000000
O    -3.580000000     5.069000000    -4.069000000
H    -3.900000000     5.148000000    -4.968000000
H    -3.946000000     4.242000000    -3.756000000
O     5.521000000    -2.810000000    -3.800000000
H     5.612000000    -1.973000000    -4.256000000
H     5.824000000    -3.461000000    -4.432000000
O     0.202000000    -1.615000000    -2.863000000
H     0.245000000    -1.398000000    -1.931000000
H     1.073000000    -1.954000000    -3.070000000
O     4.695000000    -5.479000000     3.471000000
H     3.738000000    -5.488000000     3.453000000
H     4.930000000    -6.197000000     4.059000000
O     3.408000000     3.511000000    -0.097000000
H     3.853000000     4.286000000     0.247000000
H     2.993000000     3.113000000     0.667000000
O    -3.814000000     0.560000000     4.242000000
H    -2.905000000     0.453000000     4.520000000
H    -3.977000000    -0.185000000     3.663000000
O    -2.891000000     0.743000000    -5.883000000
H    -2.640000000     1.079000000    -5.023000000
H    -3.702000000     0.261000000    -5.724000000
O     7.599000000    -1.819000000     1.029000000
H     7.755000000    -2.568000000     0.454000000
H     6.830000000    -1.388000000     0.657000000
O    -4.217000000     2.287000000     0.520000000
H    -4.741000000     1.487000000     0.491000000
H    -4.347000000     2.628000000     1.405000000
O    -4.608000000    -2.063000000     2.462000000
H    -5.431000000    -2.223000000     2.000000000
H    -3.935000000    -2.424000000     1.884000000
O    -5.063000000     3.128000000    -3.092000000
H    -4.855000000     2.837000000    -2.204000000
H    -5.592000000     3.915000000    -2.969000000
O    -4.081000000    -0.997000000    -1.999000000
H    -3.798000000    -0.269000000    -1.446000000
H    -4.339000000    -1.681000000    -1.382000000
O     1.694000000     2.728000000     2.086000000
H     2.259000000     2.490000000     2.821000000
H     1.457000000     1.891000000     1.685000000
O    -1.528000000     0.797000000    -3.546000000
H    -1.546000000     1.384000000    -2.790000000
H    -1.487000000    -0.081000000    -3.167000000
O    -0.068000000     2.679000000    -4.913000000
H     0.713000000     2.521000000    -4.383000000
H    -0.636000000     1.930000000    -4.732000000
O     2.859000000    -6.078000000     0.471000000
H     2.643000000    -6.191000000     1.396000000
H     2.145000000    -5.546000000     0.120000000
O    -4.999000000    -0.980000000    -4.699000000
H    -5.432000000    -1.825000000    -4.577000000
H    -4.745000000    -0.711000000    -3.816000000
O    -2.797000000    -2.236000000     4.751000000
H    -2.734000000    -2.263000000     5.706000000
H    -3.646000000    -2.633000000     4.556000000
O    -2.510000000     4.610000000    -0.586000000
H    -2.003000000     4.139000000    -1.247000000
H    -3.123000000     3.958000000    -0.246000000
O     4.822000000     1.206000000     2.538000000
H     4.318000000     1.258000000     3.350000000
H     5.733000000     1.140000000     2.826000000
O    -6.040000000     4.552000000     0.705000000
H    -6.252000000     3.971000000    -0.025000000
H    -5.497000000     4.019000000     1.286000000
O     1.742000000     3.864000000    -2.302000000
H     2.323000000     3.753000000    -1.550000000
H     1.952000000     4.734000000    -2.640000000
O    -7.505000000     2.374000000    -0.784000000
H    -7.725000000     2.350000000     0.147000000
H    -7.116000000     1.517000000    -0.960000000
O    -3.535000000    -5.152000000    -1.108000000
H    -3.390000000    -4.509000000    -1.802000000
H    -2.713000000    -5.642000000    -1.061000000
O    -0.555000000     0.289000000     4.608000000
H    -0.166000000     1.018000000     4.125000000
H    -0.038000000    -0.473000000     4.349000000
O    -0.071000000    -2.797000000     4.477000000
H    -0.164000000    -3.338000000     5.261000000
H    -0.842000000    -2.229000000     4.485000000
O    -0.301000000     4.540000000     2.697000000
H    -0.319000000     4.168000000     3.579000000
H     0.365000000     4.030000000     2.236000000
O    -1.188000000     6.411000000     0.962000000
H    -0.803000000     5.794000000     1.585000000
H    -1.847000000     5.898000000     0.494000000
O     4.526000000     0.109000000    -4.020000000
H     4.457000000     0.798000000    -3.360000000
H     4.081000000    -0.643000000    -3.629000000
O     4.054000000     2.691000000    -2.373000000
H     3.112000000     2.661000000    -2.540000000
H     4.125000000     2.924000000    -1.447000000
O    -5.183000000     3.075000000     3.079000000
H    -5.580000000     3.751000000     3.628000000
H    -4.621000000     2.581000000     3.676000000
O    -5.548000000    -3.130000000    -0.246000000
H    -6.376000000    -3.603000000    -0.164000000
H    -4.962000000    -3.745000000    -0.687000000
O    -3.220000000     7.125000000    -2.142000000
H    -3.271000000     6.265000000    -1.726000000
H    -3.102000000     6.936000000    -3.072000000
O     3.577000000    -3.659000000     5.475000000
H     3.230000000    -4.236000000     6.156000000
H     3.085000000    -3.895000000     4.688000000
O    -6.052000000    -0.062000000    -0.070000000
H    -6.726000000    -0.257000000     0.581000000
H    -6.318000000    -0.558000000    -0.845000000
O     4.942000000    -4.041000000    -0.008000000
H     4.374000000    -3.281000000    -0.131000000
H     4.359000000    -4.726000000     0.321000000
O    -1.034000000    -6.462000000     0.489000000
H    -0.495000000    -7.253000000     0.480000000
H    -1.056000000    -6.197000000     1.408000000
O    -1.634000000    -3.632000000    -2.829000000
H    -1.037000000    -4.037000000    -2.199000000
H    -1.233000000    -2.786000000    -3.030000000
O     1.942000000    -0.636000000     4.775000000
H     2.720000000    -0.391000000     5.276000000
H     1.998000000    -1.588000000     4.696000000
O     2.713000000    -5.529000000    -2.775000000
H     2.953000000    -6.178000000    -2.113000000
H     2.195000000    -4.881000000    -2.298000000
O     6.350000000    -4.903000000    -2.171000000
H     5.879000000    -4.843000000    -1.340000000
H     6.275000000    -4.028000000    -2.553000000
O     6.696000000    -4.837000000     1.865000000
H     6.227000000    -4.447000000     1.128000000
H     6.005000000    -5.141000000     2.455000000
O     6.782000000     0.593000000    -1.794000000
H     6.350000000     0.175000000    -2.538000000
H     6.206000000     0.414000000    -1.051000000
O     5.144000000    -0.325000000     0.215000000
H     4.528000000    -1.052000000     0.126000000
H     4.872000000     0.123000000     1.016000000
O     0.336000000    -4.713000000    -1.124000000
H     0.802000000    -4.081000000    -0.578000000
H    -0.104000000    -5.291000000    -0.500000000
