158
-3016.20242
C     0.779000000     0.671000000     1.029000000
H     1.404000000     1.235000000     1.717000000
C    -0.012000000     1.282000000     0.083000000
H    -0.129000000     2.363000000     0.067000000
C    -0.799000000     0.559000000    -0.752000000
H    -1.495000000     0.988000000    -1.440000000
C    -0.736000000    -0.845000000    -0.745000000
H    -1.399000000    -1.428000000    -1.379000000
C     0.122000000    -1.438000000     0.116000000
H     0.421000000    -2.476000000    -0.005000000
C     0.862000000    -0.713000000     1.051000000
C     1.854000000    -1.405000000     1.955000000
O     2.111000000    -2.594000000     1.754000000
O     2.385000000    -0.855000000     2.879000000
O     2.094000000    -3.215000000     4.408000000
H     1.993000000    -2.671000000     5.188000000
H     2.337000000    -2.600000000     3.716000000
O     1.626000000     3.607000000    -1.948000000
H     0.822000000     3.094000000    -2.036000000
H     2.258000000     2.997000000    -1.567000000
O    -0.354000000     4.288000000     1.675000000
H    -0.962000000     4.307000000     2.414000000
H     0.389000000     3.772000000     1.989000000
O     5.475000000     1.649000000     5.053000000
H     6.349000000     1.258000000     5.046000000
H     5.222000000     1.687000000     4.131000000
O     3.512000000     1.184000000     7.056000000
H     4.101000000     1.542000000     6.392000000
H     2.848000000     0.709000000     6.557000000
O     2.839000000    -5.186000000     1.004000000
H     2.116000000    -5.364000000     0.402000000
H     2.697000000    -4.284000000     1.290000000
O     4.552000000    -1.796000000     0.596000000
H     3.747000000    -2.140000000     0.983000000
H     4.345000000    -1.689000000    -0.333000000
O    -0.773000000     6.205000000    -3.353000000
H    -0.392000000     5.993000000    -2.501000000
H    -1.713000000     6.068000000    -3.236000000
O    -0.352000000     1.857000000    -4.321000000
H    -1.074000000     1.465000000    -3.829000000
H    -0.719000000     2.663000000    -4.683000000
O     3.393000000     1.964000000    -0.879000000
H     4.212000000     2.304000000    -1.240000000
H     3.662000000     1.452000000    -0.117000000
O     0.593000000    -6.200000000    -0.329000000
H    -0.293000000    -5.838000000    -0.352000000
H     0.480000000    -7.123000000    -0.554000000
O     0.803000000    -3.048000000    -3.263000000
H     1.493000000    -2.697000000    -2.701000000
H     0.684000000    -2.382000000    -3.940000000
O    -5.794000000    -3.937000000    -0.709000000
H    -5.393000000    -4.590000000    -0.135000000
H    -5.255000000    -3.155000000    -0.597000000
O    -4.508000000     4.063000000     0.381000000
H    -3.692000000     4.564000000     0.385000000
H    -4.628000000     3.807000000    -0.534000000
O    -1.810000000    -5.829000000     2.178000000
H    -1.015000000    -5.398000000     2.493000000
H    -1.686000000    -5.898000000     1.231000000
O    -4.878000000     3.494000000    -2.207000000
H    -4.604000000     2.694000000    -2.656000000
H    -4.743000000     4.188000000    -2.852000000
O    -2.782000000     0.885000000    -3.637000000
H    -3.538000000     0.865000000    -4.224000000
H    -2.738000000     0.000000000    -3.274000000
O    -3.681000000    -1.883000000    -3.126000000
H    -3.671000000    -2.815000000    -3.346000000
H    -4.608000000    -1.677000000    -3.000000000
O     2.148000000     4.619000000    -4.507000000
H     2.049000000     4.358000000    -3.592000000
H     1.696000000     5.461000000    -4.566000000
O    -0.210000000     5.150000000    -0.739000000
H     0.494000000     4.631000000    -1.128000000
H    -0.215000000     4.893000000     0.183000000
O    -2.785000000     6.357000000    -0.616000000
H    -1.876000000     6.092000000    -0.472000000
H    -2.735000000     7.017000000    -1.308000000
O    -3.522000000     5.618000000    -3.494000000
H    -3.827000000     6.091000000    -4.269000000
H    -3.772000000     6.176000000    -2.758000000
O     2.144000000     3.563000000     2.556000000
H     2.822000000     2.894000000     2.457000000
H     2.496000000     4.330000000     2.104000000
O     2.454000000    -7.909000000     1.623000000
H     2.752000000    -8.330000000     0.817000000
H     2.626000000    -6.978000000     1.485000000
O    -2.006000000     0.768000000     4.474000000
H    -1.683000000     0.075000000     5.050000000
H    -2.284000000     1.464000000     5.070000000
O    -1.002000000    -1.671000000     5.581000000
H    -1.692000000    -2.261000000     5.277000000
H    -0.348000000    -2.249000000     5.975000000
O    -1.300000000     4.110000000    -5.289000000
H    -2.134000000     4.493000000    -5.561000000
H    -1.004000000     4.668000000    -4.569000000
O     0.947000000     3.052000000     5.002000000
H     1.335000000     2.889000000     4.142000000
H     1.121000000     3.978000000     5.171000000
O     3.428000000    -1.449000000    -2.435000000
H     3.743000000    -1.331000000    -3.331000000
H     2.826000000    -0.718000000    -2.295000000
O     5.064000000    -3.825000000    -2.296000000
H     4.479000000    -4.295000000    -1.702000000
H     4.908000000    -2.900000000    -2.104000000
O    -4.296000000    -1.008000000    -0.266000000
H    -3.641000000    -0.787000000    -0.929000000
H    -3.799000000    -1.074000000     0.549000000
O    -6.114000000    -1.170000000    -2.622000000
H    -6.229000000    -0.973000000    -1.693000000
H    -6.878000000    -0.779000000    -3.046000000
O     0.676000000    -0.822000000    -4.843000000
H     0.800000000    -0.919000000    -5.788000000
H     0.398000000     0.087000000    -4.731000000
O     3.874000000     1.630000000     2.482000000
H     3.334000000     0.882000000     2.738000000
H     4.486000000     1.273000000     1.838000000
O     5.492000000    -5.327000000     4.084000000
H     6.153000000    -5.592000000     4.724000000
H     5.315000000    -4.409000000     4.288000000
O    -5.540000000     2.169000000    -4.556000000
H    -5.207000000     1.923000000    -5.419000000
H    -6.357000000     1.680000000    -4.466000000
O    -1.845000000    -4.259000000    -2.768000000
H    -1.701000000    -4.449000000    -3.695000000
H    -1.180000000    -3.606000000    -2.551000000
O     1.771000000     0.104000000     5.161000000
H     0.974000000     0.614000000     5.012000000
H     1.981000000    -0.268000000     4.304000000
O     6.138000000    -5.242000000     1.387000000
H     5.679000000    -5.377000000     2.216000000
H     5.477000000    -5.414000000     0.716000000
O    -2.161000000    -5.665000000    -0.602000000
H    -2.188000000    -5.239000000    -1.459000000
H    -3.026000000    -6.062000000    -0.504000000
O     7.245000000    -1.670000000     1.833000000
H     7.746000000    -1.121000000     1.231000000
H     6.390000000    -1.766000000     1.414000000
O    -2.256000000    -0.550000000     2.083000000
H    -1.917000000    -0.180000000     2.898000000
H    -1.750000000    -0.118000000     1.394000000
O     1.410000000    -5.978000000    -3.698000000
H     1.283000000    -5.030000000    -3.730000000
H     1.381000000    -6.255000000    -4.614000000
O    -5.755000000    -1.635000000    -5.482000000
H    -5.399000000    -1.508000000    -4.603000000
H    -5.532000000    -2.539000000    -5.703000000
O     5.692000000    -2.196000000     4.855000000
H     6.298000000    -1.456000000     4.859000000
H     5.137000000    -2.048000000     4.089000000
O     5.878000000     1.081000000     0.715000000
H     6.133000000     0.648000000    -0.100000000
H     6.697000000     1.432000000     1.066000000
O     2.554000000     2.154000000    -5.822000000
H     2.486000000     3.047000000    -5.484000000
H     1.663000000     1.808000000    -5.764000000
O     0.582000000    -4.945000000     3.113000000
H     1.203000000    -5.181000000     2.425000000
H     0.904000000    -4.109000000     3.451000000
