158
-3050.46682
C     0.261000000     0.008000000     1.435000000
H     0.409000000     0.084000000     2.509000000
C    -0.405000000     0.995000000     0.769000000
H    -0.868000000     1.811000000     1.319000000
C    -0.499000000     0.979000000    -0.611000000
H    -0.936000000     1.717000000    -1.218000000
C     0.063000000    -0.115000000    -1.284000000
H     0.181000000    -0.051000000    -2.363000000
C     0.546000000    -1.207000000    -0.627000000
H     0.904000000    -2.085000000    -1.160000000
C     0.711000000    -1.130000000     0.773000000
C     1.315000000    -2.303000000     1.492000000
O     1.901000000    -3.221000000     0.901000000
O     1.348000000    -2.225000000     2.679000000
O    -2.849000000     5.770000000    -2.575000000
H    -3.155000000     5.394000000    -1.750000000
H    -1.960000000     5.430000000    -2.679000000
O    -0.915000000     6.117000000     2.664000000
H    -0.334000000     5.414000000     2.955000000
H    -1.566000000     6.194000000     3.361000000
O     0.331000000    -1.927000000     5.038000000
H    -0.561000000    -1.649000000     4.833000000
H     0.726000000    -2.114000000     4.186000000
O     5.131000000     0.176000000     2.186000000
H     5.275000000     0.022000000     1.252000000
H     5.975000000     0.492000000     2.508000000
O     5.995000000    -2.495000000     4.527000000
H     5.065000000    -2.275000000     4.566000000
H     6.078000000    -3.284000000     5.063000000
O     2.626000000     0.465000000     5.776000000
H     2.510000000    -0.335000000     5.264000000
H     2.102000000     1.122000000     5.316000000
O    -0.253000000    -4.339000000    -0.343000000
H    -0.124000000    -4.207000000    -1.282000000
H     0.496000000    -3.904000000     0.065000000
O     2.933000000    -3.450000000    -1.656000000
H     2.676000000    -3.462000000    -0.734000000
H     2.165000000    -3.777000000    -2.124000000
O    -4.445000000     2.672000000    -1.105000000
H    -4.076000000     3.410000000    -0.619000000
H    -5.309000000     2.536000000    -0.715000000
O    -1.993000000     1.120000000    -4.142000000
H    -2.757000000     1.443000000    -4.620000000
H    -2.359000000     0.679000000    -3.375000000
O     0.046000000    -4.755000000     6.504000000
H     0.226000000    -3.914000000     6.085000000
H     0.856000000    -4.971000000     6.966000000
O     5.580000000    -0.535000000    -0.424000000
H     6.194000000    -0.139000000    -1.042000000
H     5.308000000    -1.350000000    -0.845000000
O     0.840000000    -2.459000000    -5.220000000
H     0.184000000    -1.774000000    -5.350000000
H     1.572000000    -2.198000000    -5.779000000
O    -0.593000000     4.586000000    -6.040000000
H    -0.570000000     5.447000000    -5.622000000
H    -0.416000000     3.970000000    -5.330000000
O    -3.552000000     4.780000000     0.134000000
H    -3.025000000     4.775000000     0.933000000
H    -3.918000000     5.663000000     0.094000000
O     3.360000000     3.358000000    -5.177000000
H     2.805000000     3.843000000    -5.788000000
H     2.766000000     2.735000000    -4.757000000
O    -2.441000000    -1.284000000     0.948000000
H    -1.685000000    -0.702000000     1.017000000
H    -2.474000000    -1.736000000     1.791000000
O    -4.590000000     0.457000000     3.443000000
H    -5.179000000    -0.010000000     4.036000000
H    -4.812000000     0.125000000     2.574000000
O    -5.638000000    -1.092000000    -3.066000000
H    -4.736000000    -0.849000000    -2.857000000
H    -6.042000000    -0.278000000    -3.367000000
O     2.343000000     2.310000000    -0.227000000
H     1.693000000     1.665000000     0.051000000
H     2.954000000     2.367000000     0.508000000
O    -0.141000000     3.310000000    -3.764000000
H     0.152000000     3.756000000    -2.969000000
H    -0.646000000     2.561000000    -3.446000000
O     1.726000000     7.222000000    -1.272000000
H     1.328000000     7.716000000    -1.990000000
H     1.443000000     6.319000000    -1.419000000
O     4.227000000    -2.022000000    -3.859000000
H     3.548000000    -1.622000000    -4.402000000
H     3.791000000    -2.205000000    -3.027000000
O     0.426000000    -3.971000000    -2.937000000
H     0.577000000    -3.415000000    -3.701000000
H     0.073000000    -4.784000000    -3.298000000
O     2.675000000    -4.486000000     3.626000000
H     2.217000000    -3.646000000     3.599000000
H     2.721000000    -4.763000000     2.711000000
O     3.646000000     2.476000000     2.017000000
H     4.295000000     1.786000000     1.875000000
H     4.163000000     3.278000000     2.094000000
O     0.762000000    -1.383000000     7.658000000
H     0.248000000    -0.607000000     7.881000000
H     0.631000000    -1.495000000     6.717000000
O    -4.091000000     1.800000000    -6.257000000
H    -4.386000000     2.574000000    -5.776000000
H    -3.755000000     2.146000000    -7.083000000
O    -0.262000000    -7.125000000     0.795000000
H    -0.330000000    -6.793000000     1.690000000
H    -0.145000000    -6.342000000     0.256000000
O    -1.118000000     2.128000000     4.389000000
H    -1.005000000     2.778000000     5.082000000
H    -0.234000000     1.982000000     4.051000000
O    -4.791000000     3.470000000    -3.646000000
H    -4.431000000     4.354000000    -3.722000000
H    -4.568000000     3.196000000    -2.757000000
O     1.599000000     2.251000000     3.900000000
H     2.239000000     2.307000000     3.191000000
H     1.497000000     3.153000000     4.203000000
O     2.092000000    -7.038000000     4.975000000
H     2.067000000    -6.165000000     4.584000000
H     1.286000000    -7.458000000     4.674000000
O     1.422000000     4.479000000    -1.717000000
H     1.711000000     3.824000000    -1.081000000
H     2.203000000     4.668000000    -2.237000000
O     3.638000000     0.969000000    -2.406000000
H     3.605000000     0.192000000    -1.848000000
H     3.279000000     1.670000000    -1.862000000
O    -3.214000000     0.242000000    -1.680000000
H    -2.982000000    -0.195000000    -0.861000000
H    -3.688000000     1.027000000    -1.407000000
O    -3.737000000     2.961000000     4.110000000
H    -2.801000000     2.882000000     4.296000000
H    -3.998000000     2.085000000     3.825000000
O    -2.701000000    -4.253000000     1.006000000
H    -2.240000000    -4.694000000     1.720000000
H    -2.054000000    -4.196000000     0.303000000
O    -0.139000000     0.153000000    -5.639000000
H     0.728000000     0.501000000    -5.433000000
H    -0.722000000     0.573000000    -5.006000000
O     3.747000000    -7.337000000     1.854000000
H     3.946000000    -6.511000000     1.413000000
H     3.182000000    -7.807000000     1.241000000
O     3.953000000    -3.757000000     5.937000000
H     3.357000000    -4.054000000     6.625000000
H     3.544000000    -4.051000000     5.123000000
O     2.368000000     0.851000000    -4.840000000
H     2.931000000     0.759000000    -4.071000000
H     2.975000000     0.895000000    -5.578000000
O     3.542000000    -1.598000000     3.804000000
H     3.939000000    -1.022000000     3.151000000
H     2.744000000    -1.921000000     3.385000000
O     5.471000000    -5.693000000     3.637000000
H     4.983000000    -6.476000000     3.383000000
H     4.807000000    -5.007000000     3.700000000
O    -2.121000000    -0.528000000     3.904000000
H    -1.676000000     0.297000000     4.095000000
H    -2.982000000    -0.266000000     3.577000000
O     5.338000000    -4.604000000    -1.339000000
H     4.571000000    -4.114000000    -1.635000000
H     5.607000000    -5.114000000    -2.102000000
O     4.270000000    -4.706000000     1.115000000
H     4.877000000    -4.585000000     0.386000000
H     3.613000000    -4.019000000     0.997000000
O    -0.319000000    -5.496000000     3.006000000
H     0.378000000    -4.855000000     2.871000000
H    -0.659000000    -5.300000000     3.880000000
