158
-3060.96681
C    -0.641000000    -0.977000000    -0.874000000
H    -1.237000000    -1.715000000    -1.405000000
C    -1.279000000    -0.267000000     0.169000000
H    -2.346000000    -0.371000000     0.349000000
C    -0.540000000     0.681000000     0.866000000
H    -1.117000000     1.323000000     1.533000000
C     0.807000000     0.935000000     0.572000000
H     1.309000000     1.709000000     1.146000000
C     1.466000000     0.164000000    -0.420000000
H     2.526000000     0.270000000    -0.634000000
C     0.716000000    -0.778000000    -1.153000000
C     1.336000000    -1.677000000    -2.188000000
O     2.287000000    -1.237000000    -2.765000000
O     0.835000000    -2.777000000    -2.439000000
O    -2.280000000     3.568000000    -0.937000000
H    -2.691000000     4.225000000    -0.376000000
H    -1.370000000     3.536000000    -0.642000000
O     0.009000000    -4.202000000    -0.179000000
H     0.280000000    -3.927000000    -1.055000000
H    -0.749000000    -4.766000000    -0.329000000
O     5.942000000     1.064000000    -3.092000000
H     5.334000000     1.739000000    -3.394000000
H     6.638000000     1.550000000    -2.649000000
O     4.724000000    -0.969000000     1.335000000
H     4.507000000    -0.785000000     0.421000000
H     4.173000000    -0.369000000     1.838000000
O     2.573000000    -4.710000000    -3.130000000
H     2.953000000    -4.283000000    -3.897000000
H     1.988000000    -4.052000000    -2.754000000
O     2.351000000     1.134000000    -4.237000000
H     2.482000000     0.344000000    -3.712000000
H     3.043000000     1.729000000    -3.950000000
O     3.418000000     0.911000000     2.946000000
H     3.659000000     1.468000000     2.206000000
H     2.927000000     1.488000000     3.531000000
O     4.180000000    -4.972000000    -0.932000000
H     3.664000000    -4.336000000    -0.436000000
H     3.701000000    -5.079000000    -1.754000000
O    -0.007000000     5.147000000     0.710000000
H    -0.786000000     5.687000000     0.576000000
H    -0.181000000     4.674000000     1.523000000
O    -0.794000000     4.535000000     3.679000000
H    -1.746000000     4.584000000     3.591000000
H    -0.553000000     5.345000000     4.128000000
O    -2.485000000     6.390000000     0.819000000
H    -3.151000000     5.838000000     1.228000000
H    -2.894000000     7.254000000     0.759000000
O    -4.496000000    -1.371000000    -1.734000000
H    -3.881000000    -1.921000000    -2.220000000
H    -4.200000000    -0.476000000    -1.902000000
O    -0.218000000     1.756000000    -3.340000000
H    -0.011000000     2.431000000    -2.694000000
H     0.608000000     1.600000000    -3.797000000
O    -2.249000000    -3.601000000    -3.394000000
H    -2.869000000    -4.310000000    -3.222000000
H    -1.518000000    -4.027000000    -3.843000000
O    -1.719000000    -3.111000000     1.919000000
H    -1.229000000    -2.306000000     2.086000000
H    -1.113000000    -3.663000000     1.425000000
O    -4.252000000    -1.951000000     2.672000000
H    -3.768000000    -1.719000000     3.465000000
H    -3.613000000    -2.410000000     2.127000000
O    -5.524000000     0.292000000     2.278000000
H    -5.144000000    -0.586000000     2.312000000
H    -5.875000000     0.367000000     1.390000000
O    -4.454000000    -1.565000000    -5.499000000
H    -3.781000000    -1.392000000    -4.841000000
H    -4.729000000    -0.697000000    -5.795000000
O     0.436000000    -0.266000000    -5.881000000
H     1.134000000     0.230000000    -5.454000000
H     0.493000000    -1.140000000    -5.496000000
O     2.593000000    -3.087000000     0.761000000
H     2.648000000    -3.010000000     1.714000000
H     1.655000000    -3.082000000     0.574000000
O    -2.805000000     1.902000000    -4.199000000
H    -3.032000000     0.974000000    -4.144000000
H    -1.930000000     1.958000000    -3.816000000
O     7.143000000     0.310000000     0.453000000
H     6.515000000    -0.080000000     1.061000000
H     6.705000000     0.278000000    -0.397000000
O     2.587000000    -0.860000000     4.939000000
H     2.909000000    -0.570000000     4.085000000
H     3.379000000    -1.073000000     5.433000000
O    -2.264000000    -0.988000000    -4.070000000
H    -1.502000000    -0.766000000    -4.604000000
H    -2.007000000    -1.784000000    -3.604000000
O    -2.023000000    -5.832000000    -1.203000000
H    -2.736000000    -5.197000000    -1.134000000
H    -2.318000000    -6.452000000    -1.869000000
O    -1.066000000     1.886000000     4.136000000
H    -1.983000000     1.785000000     3.879000000
H    -0.891000000     2.822000000     4.034000000
O     3.174000000     4.955000000     0.392000000
H     3.402000000     5.607000000     1.055000000
H     2.221000000     4.884000000     0.444000000
O     0.953000000     1.980000000     6.679000000
H     1.580000000     2.345000000     6.055000000
H     0.615000000     1.194000000     6.249000000
O     0.489000000    -2.857000000    -5.137000000
H     1.162000000    -3.250000000    -5.692000000
H     0.739000000    -3.102000000    -4.246000000
O    -3.809000000     1.775000000     3.582000000
H    -4.136000000     1.419000000     4.408000000
H    -4.466000000     1.519000000     2.934000000
O    -4.594000000     4.236000000     0.303000000
H    -5.292000000     4.325000000     0.952000000
H    -4.803000000     3.428000000    -0.164000000
O     1.631000000    -3.061000000     3.393000000
H     1.795000000    -2.862000000     4.314000000
H     1.011000000    -2.390000000     3.109000000
O    -5.751000000    -3.749000000     1.161000000
H    -5.277000000    -3.061000000     1.628000000
H    -6.634000000    -3.396000000     1.046000000
O     4.344000000     2.502000000     1.185000000
H     3.593000000     3.033000000     0.920000000
H     5.046000000     2.766000000     0.591000000
O    -6.523000000     1.212000000    -0.204000000
H    -7.177000000     1.784000000    -0.607000000
H    -5.755000000     1.290000000    -0.771000000
O     1.207000000    -6.314000000    -5.239000000
H     1.619000000    -5.795000000    -4.548000000
H     1.420000000    -5.848000000    -6.047000000
O    -2.535000000    -0.852000000     5.188000000
H    -3.033000000    -0.174000000     5.645000000
H    -1.622000000    -0.672000000     5.413000000
O     0.644000000    -6.866000000    -1.408000000
H     1.204000000    -6.307000000    -1.946000000
H    -0.239000000    -6.525000000    -1.546000000
O    -3.685000000     4.578000000     3.859000000
H    -3.609000000     3.730000000     4.297000000
H    -4.359000000     4.444000000     3.193000000
O     6.417000000    -1.539000000    -4.144000000
H     6.413000000    -0.586000000    -4.235000000
H     6.813000000    -1.696000000    -3.286000000
O     4.468000000    -0.757000000    -1.450000000
H     4.990000000    -0.067000000    -1.859000000
H     3.745000000    -0.905000000    -2.060000000
O     6.520000000    -2.923000000    -1.159000000
H     6.643000000    -2.850000000    -0.213000000
H     5.733000000    -2.408000000    -1.339000000
O    -0.320000000    -1.075000000     2.993000000
H    -0.254000000    -0.369000000     2.350000000
H    -0.684000000    -0.656000000     3.772000000
O     0.087000000    -0.948000000     6.511000000
H     0.909000000    -0.947000000     6.019000000
H     0.156000000    -1.707000000     7.090000000
O    -4.137000000     1.451000000    -1.719000000
H    -3.366000000     1.847000000    -1.313000000
H    -4.118000000     1.764000000    -2.624000000
O     4.503000000    -1.437000000    -7.408000000
H     4.154000000    -1.495000000    -6.519000000
H     4.171000000    -0.604000000    -7.743000000
O     1.995000000     3.112000000     4.328000000
H     1.114000000     3.169000000     3.958000000
H     2.342000000     4.001000000     4.257000000
O     3.754000000    -2.565000000    -4.626000000
H     4.682000000    -2.398000000    -4.462000000
H     3.295000000    -1.992000000    -4.012000000
