158
-3033.81867
C    -0.544000000    -1.105000000    -0.853000000
H    -1.030000000    -1.868000000    -1.456000000
C    -1.239000000    -0.373000000     0.147000000
H    -2.282000000    -0.549000000     0.397000000
C    -0.644000000     0.642000000     0.898000000
H    -1.287000000     1.281000000     1.588000000
C     0.672000000     1.025000000     0.573000000
H     1.219000000     1.856000000     1.011000000
C     1.377000000     0.336000000    -0.455000000
H     2.423000000     0.479000000    -0.713000000
C     0.798000000    -0.747000000    -1.109000000
C     1.645000000    -1.610000000    -2.031000000
O     2.825000000    -1.656000000    -1.918000000
O     1.230000000    -2.429000000    -2.873000000
O    -4.094000000     4.323000000    -0.493000000
H    -3.266000000     4.498000000    -0.940000000
H    -3.963000000     3.475000000    -0.068000000
O     0.133000000    -4.724000000    -2.864000000
H     0.625000000    -3.948000000    -2.597000000
H    -0.051000000    -4.583000000    -3.793000000
O     2.651000000     3.268000000    -1.348000000
H     2.036000000     3.981000000    -1.520000000
H     3.471000000     3.558000000    -1.747000000
O     6.442000000    -2.061000000     2.116000000
H     6.914000000    -1.229000000     2.097000000
H     5.672000000    -1.914000000     1.566000000
O     3.566000000    -3.908000000    -3.010000000
H     4.348000000    -3.767000000    -2.477000000
H     3.029000000    -3.130000000    -2.858000000
O     1.350000000     1.529000000    -3.099000000
H     0.486000000     1.743000000    -2.747000000
H     1.962000000     1.804000000    -2.416000000
O     0.987000000    -6.780000000    -0.990000000
H     0.080000000    -6.931000000    -0.724000000
H     0.934000000    -6.072000000    -1.632000000
O     3.626000000     2.929000000     1.243000000
H     2.851000000     3.361000000     1.602000000
H     3.397000000     2.746000000     0.332000000
O    -3.311000000    -2.260000000     3.536000000
H    -2.612000000    -2.886000000     3.726000000
H    -2.890000000    -1.403000000     3.610000000
O     3.329000000    -3.925000000     0.274000000
H     4.094000000    -4.462000000     0.067000000
H     3.684000000    -3.047000000     0.418000000
O     2.586000000    -6.554000000    -3.450000000
H     2.097000000    -7.055000000    -2.797000000
H     2.485000000    -5.642000000    -3.178000000
O    -0.942000000     5.204000000     2.088000000
H    -1.492000000     5.959000000     2.294000000
H    -1.170000000     4.982000000     1.185000000
O    -1.083000000     4.957000000    -1.103000000
H    -1.516000000     5.740000000    -1.443000000
H    -0.156000000     5.093000000    -1.299000000
O    -0.761000000    -1.660000000    -4.399000000
H    -0.175000000    -1.167000000    -4.975000000
H    -0.212000000    -1.907000000    -3.655000000
O     0.297000000    -3.607000000     0.544000000
H     0.245000000    -2.655000000     0.628000000
H     1.142000000    -3.765000000     0.124000000
O    -1.618000000    -0.259000000     4.052000000
H    -1.695000000     0.123000000     4.926000000
H    -0.688000000    -0.181000000     3.837000000
O    -1.619000000     3.494000000     4.184000000
H    -2.076000000     4.018000000     4.843000000
H    -1.569000000     4.065000000     3.417000000
O    -4.863000000     0.150000000     5.934000000
H    -4.374000000    -0.630000000     6.195000000
H    -4.383000000     0.494000000     5.180000000
O    -3.252000000    -1.071000000    -5.359000000
H    -2.364000000    -1.163000000    -5.015000000
H    -3.523000000    -0.192000000    -5.091000000
O     0.286000000     0.587000000    -5.497000000
H    -0.542000000     1.052000000    -5.377000000
H     0.856000000     0.931000000    -4.809000000
O    -6.170000000     2.925000000     3.084000000
H    -6.280000000     1.981000000     3.201000000
H    -5.758000000     3.220000000     3.897000000
O    -5.141000000    -4.236000000     0.160000000
H    -4.245000000    -4.083000000    -0.138000000
H    -5.395000000    -3.418000000     0.586000000
O     4.376000000    -1.419000000     0.577000000
H     4.130000000    -0.643000000     1.080000000
H     3.854000000    -1.361000000    -0.223000000
O    -1.547000000     1.958000000    -1.932000000
H    -1.737000000     1.426000000    -1.159000000
H    -1.565000000     2.860000000    -1.613000000
O    -3.575000000    -3.610000000    -2.533000000
H    -3.867000000    -2.710000000    -2.680000000
H    -3.483000000    -3.978000000    -3.412000000
O     0.855000000     2.703000000     4.910000000
H     0.071000000     3.085000000     4.514000000
H     0.977000000     1.874000000     4.448000000
O     2.228000000    -2.025000000    -5.283000000
H     2.110000000    -2.082000000    -4.335000000
H     2.450000000    -2.917000000    -5.551000000
O     1.653000000     0.271000000     4.098000000
H     1.655000000    -0.646000000     4.371000000
H     2.539000000     0.426000000     3.771000000
O     4.401000000     0.426000000     2.706000000
H     5.036000000     0.573000000     3.408000000
H     4.082000000     1.301000000     2.485000000
O    -4.871000000    -0.242000000     0.127000000
H    -5.422000000    -0.382000000    -0.642000000
H    -5.272000000    -0.780000000     0.810000000
O     1.470000000     5.619000000    -1.260000000
H     1.642000000     6.106000000    -2.066000000
H     1.931000000     6.111000000    -0.581000000
O    -3.376000000     1.670000000     3.685000000
H    -2.866000000     2.377000000     4.081000000
H    -2.808000000     0.903000000     3.744000000
O     4.283000000    -4.206000000    -5.883000000
H     4.081000000    -4.185000000    -4.948000000
H     5.215000000    -4.419000000    -5.923000000
O    -1.998000000     0.565000000     6.484000000
H    -2.494000000     0.341000000     7.271000000
H    -1.463000000     1.316000000     6.743000000
O    -4.147000000     1.400000000    -3.736000000
H    -3.301000000     1.105000000    -3.399000000
H    -4.767000000     1.204000000    -3.033000000
O    -5.740000000    -1.942000000     2.012000000
H    -4.926000000    -2.164000000     2.463000000
H    -6.335000000    -1.671000000     2.711000000
O     4.950000000     1.250000000    -4.266000000
H     4.439000000     1.985000000    -4.604000000
H     5.796000000     1.632000000    -4.034000000
O    -3.977000000     2.097000000     0.978000000
H    -4.042000000     2.040000000     1.931000000
H    -4.193000000     1.216000000     0.670000000
O     7.385000000    -0.021000000    -0.895000000
H     7.271000000     0.798000000    -1.376000000
H     6.860000000    -0.658000000    -1.380000000
O    -0.557000000    -4.067000000    -5.744000000
H     0.122000000    -4.237000000    -6.397000000
H    -0.469000000    -3.135000000    -5.544000000
O     6.423000000    -3.883000000    -1.802000000
H     6.772000000    -3.677000000    -0.935000000
H     6.313000000    -3.031000000    -2.225000000
O     3.584000000     3.355000000     4.167000000
H     3.557000000     3.762000000     3.301000000
H     2.666000000     3.297000000     4.433000000
O     1.031000000    -1.795000000     6.053000000
H     1.166000000    -0.848000000     6.006000000
H     1.407000000    -2.048000000     6.896000000
O    -5.435000000     5.409000000     2.202000000
H    -4.925000000     4.964000000     1.524000000
H    -6.007000000     4.728000000     2.556000000
O     3.717000000    -0.127000000    -6.448000000
H     3.889000000     0.351000000    -5.637000000
H     2.973000000    -0.692000000    -6.240000000
O     1.805000000     4.738000000     2.119000000
H     2.157000000     5.547000000     1.747000000
H     0.855000000     4.849000000     2.078000000
O     5.253000000    -0.888000000    -2.486000000
H     5.192000000    -0.263000000    -3.208000000
H     4.349000000    -1.007000000    -2.195000000
O    -2.323000000    -4.314000000    -0.213000000
H    -2.475000000    -3.885000000    -1.056000000
H    -1.418000000    -4.094000000     0.008000000
