158
-3017.67426
C    -0.551000000    -1.007000000    -0.883000000
H    -1.128000000    -1.719000000    -1.468000000
C    -1.274000000     0.045000000    -0.292000000
H    -2.357000000     0.032000000    -0.384000000
C    -0.584000000     0.952000000     0.421000000
H    -1.142000000     1.840000000     0.776000000
C     0.789000000     0.829000000     0.649000000
H     1.356000000     1.636000000     1.105000000
C     1.464000000    -0.285000000     0.138000000
H     2.541000000    -0.272000000     0.281000000
C     0.763000000    -1.235000000    -0.550000000
C     1.517000000    -2.441000000    -1.105000000
O     2.528000000    -2.903000000    -0.599000000
O     1.018000000    -3.002000000    -2.066000000
O     5.963000000     1.387000000     3.528000000
H     5.558000000     1.386000000     2.661000000
H     6.829000000     1.003000000     3.388000000
O    -1.823000000     1.102000000     6.829000000
H    -1.523000000     1.603000000     6.071000000
H    -1.836000000     0.194000000     6.526000000
O    -2.629000000     4.358000000    -2.435000000
H    -2.433000000     4.996000000    -3.121000000
H    -1.772000000     4.025000000    -2.166000000
O    -0.300000000    -5.141000000    -1.077000000
H     0.174000000    -4.370000000    -1.389000000
H    -1.213000000    -4.857000000    -1.027000000
O     1.624000000    -6.944000000    -0.502000000
H     1.186000000    -6.179000000    -0.876000000
H     1.782000000    -7.519000000    -1.250000000
O     4.547000000    -6.445000000    -3.139000000
H     3.592000000    -6.494000000    -3.179000000
H     4.822000000    -7.331000000    -2.902000000
O    -3.313000000     3.638000000     2.517000000
H    -2.666000000     4.317000000     2.705000000
H    -3.613000000     3.832000000     1.629000000
O    -6.552000000     0.598000000    -0.435000000
H    -5.858000000     0.461000000    -1.081000000
H    -6.631000000     1.549000000    -0.367000000
O    -0.736000000     3.486000000     5.972000000
H    -1.142000000     4.339000000     6.126000000
H     0.201000000     3.673000000     5.918000000
O    -3.307000000     1.103000000     3.371000000
H    -2.411000000     0.771000000     3.416000000
H    -3.255000000     1.853000000     2.778000000
O     3.939000000    -6.594000000     1.152000000
H     3.253000000    -6.435000000     0.503000000
H     4.650000000    -6.006000000     0.897000000
O     1.877000000    -6.244000000    -3.512000000
H     0.974000000    -6.288000000    -3.825000000
H     2.108000000    -5.317000000    -3.575000000
O     3.389000000     1.648000000    -1.241000000
H     4.159000000     1.085000000    -1.323000000
H     2.767000000     1.298000000    -1.879000000
O     5.067000000     1.937000000     0.945000000
H     4.865000000     1.737000000     0.031000000
H     4.656000000     2.787000000     1.100000000
O    -5.494000000     3.843000000    -3.038000000
H    -4.661000000     4.024000000    -2.602000000
H    -5.561000000     2.888000000    -3.041000000
O    -5.038000000     0.272000000    -2.790000000
H    -5.733000000    -0.361000000    -2.970000000
H    -4.955000000     0.773000000    -3.602000000
O     1.890000000    -1.854000000     4.564000000
H     2.214000000    -2.074000000     3.691000000
H     2.580000000    -1.311000000     4.946000000
O    -2.060000000    -3.157000000     0.736000000
H    -2.333000000    -3.869000000     0.157000000
H    -1.124000000    -3.056000000     0.567000000
O    -2.204000000     6.547000000     3.572000000
H    -1.460000000     7.043000000     3.231000000
H    -2.357000000     6.914000000     4.442000000
O    -2.734000000    -0.721000000    -6.256000000
H    -3.160000000     0.081000000    -5.954000000
H    -1.919000000    -0.763000000    -5.756000000
O     0.495000000     0.895000000    -3.060000000
H     0.143000000     0.411000000    -3.808000000
H     0.225000000     0.384000000    -2.297000000
O     3.634000000    -1.952000000     2.004000000
H     4.493000000    -2.052000000     1.593000000
H     3.025000000    -1.872000000     1.270000000
O     4.494000000     4.612000000     1.363000000
H     4.081000000     4.856000000     0.535000000
H     4.924000000     5.413000000     1.661000000
O    -3.624000000     4.925000000     0.061000000
H    -3.294000000     4.474000000    -0.716000000
H    -4.504000000     5.212000000    -0.184000000
O    -0.041000000     3.445000000    -2.240000000
H     0.728000000     3.831000000    -2.660000000
H     0.030000000     2.509000000    -2.426000000
O    -3.745000000    -1.867000000    -1.759000000
H    -3.616000000    -2.408000000    -2.538000000
H    -4.152000000    -1.065000000    -2.088000000
O     3.962000000    -4.428000000    -6.158000000
H     4.350000000    -3.599000000    -6.435000000
H     3.581000000    -4.239000000    -5.300000000
O    -0.585000000    -2.277000000    -4.050000000
H    -0.066000000    -2.487000000    -3.273000000
H    -0.633000000    -3.100000000    -4.536000000
O    -4.201000000    -4.687000000    -3.622000000
H    -3.319000000    -5.059000000    -3.647000000
H    -4.094000000    -3.795000000    -3.952000000
O    -0.213000000    -4.994000000    -5.487000000
H     0.620000000    -5.090000000    -5.948000000
H    -0.802000000    -5.607000000    -5.927000000
O    -5.132000000    -0.330000000     4.696000000
H    -4.540000000     0.046000000     4.045000000
H    -4.765000000    -0.060000000     5.538000000
O     0.704000000     5.037000000     3.632000000
H     0.899000000     4.467000000     4.376000000
H     0.685000000     4.449000000     2.877000000
O     2.997000000     4.531000000    -1.181000000
H     3.177000000     3.639000000    -0.886000000
H     2.770000000     4.436000000    -2.107000000
O     1.102000000    -4.133000000     2.084000000
H     1.689000000    -3.834000000     1.391000000
H     1.680000000    -4.541000000     2.729000000
O     0.525000000     4.553000000     0.455000000
H     1.368000000     4.961000000     0.252000000
H     0.248000000     4.153000000    -0.369000000
O     2.780000000    -1.353000000    -5.532000000
H     2.029000000    -0.775000000    -5.403000000
H     3.370000000    -0.856000000    -6.099000000
O     4.589000000    -4.580000000    -0.817000000
H     3.831000000    -3.996000000    -0.807000000
H     4.488000000    -5.091000000    -1.620000000
O    -4.811000000    -2.221000000     0.689000000
H    -3.928000000    -2.450000000     0.978000000
H    -4.715000000    -2.026000000    -0.243000000
O    -5.061000000     3.129000000     4.703000000
H    -5.050000000     2.295000000     5.173000000
H    -4.304000000     3.084000000     4.119000000
O    -4.306000000    -2.249000000    -4.646000000
H    -3.759000000    -1.808000000    -5.297000000
H    -5.200000000    -1.986000000    -4.868000000
O     5.353000000     0.010000000    -1.675000000
H     5.872000000    -0.410000000    -0.989000000
H     5.398000000    -0.596000000    -2.414000000
O     5.951000000    -2.942000000     0.977000000
H     5.563000000    -3.431000000     0.252000000
H     6.420000000    -2.222000000     0.556000000
O     5.684000000    -2.252000000    -3.269000000
H     6.330000000    -2.892000000    -2.971000000
H     4.846000000    -2.709000000    -3.203000000
O     2.916000000    -3.525000000    -3.726000000
H     2.719000000    -2.768000000    -4.278000000
H     2.436000000    -3.362000000    -2.915000000
O    -3.235000000    -4.957000000    -0.825000000
H    -3.770000000    -5.162000000    -1.592000000
H    -3.485000000    -5.614000000    -0.176000000
O    -1.399000000     6.688000000     0.093000000
H    -2.085000000     6.089000000     0.386000000
H    -0.624000000     6.135000000    -0.005000000
O     3.783000000     0.168000000     4.973000000
H     4.055000000     1.000000000     5.361000000
H     4.227000000     0.143000000     4.125000000
O    -0.203000000     0.078000000     4.379000000
H     0.039000000     0.336000000     3.489000000
H     0.486000000    -0.530000000     4.648000000
