158
-3036.92740
C    -0.219000000    -0.649000000    -1.288000000
H    -0.217000000    -0.967000000    -2.328000000
C    -0.756000000     0.601000000    -0.935000000
H    -1.195000000     1.205000000    -1.725000000
C    -0.450000000     1.114000000     0.295000000
H    -0.778000000     2.182000000     0.453000000
C     0.370000000     0.405000000     1.188000000
H     0.665000000     0.852000000     2.133000000
C     0.877000000    -0.858000000     0.884000000
H     1.539000000    -1.417000000     1.541000000
C     0.560000000    -1.381000000    -0.396000000
C     0.923000000    -2.874000000    -0.663000000
O     1.347000000    -3.587000000     0.204000000
O     0.947000000    -3.268000000    -1.792000000
O     4.276000000     3.127000000     3.798000000
H     5.000000000     3.121000000     4.423000000
H     4.134000000     4.054000000     3.604000000
O     2.484000000    -6.115000000    -0.564000000
H     2.011000000    -5.313000000    -0.339000000
H     2.334000000    -6.226000000    -1.503000000
O     0.443000000     1.553000000    -7.287000000
H    -0.074000000     1.576000000    -8.093000000
H    -0.207000000     1.481000000    -6.588000000
O     2.984000000    -1.027000000    -4.495000000
H     2.284000000    -1.670000000    -4.610000000
H     3.757000000    -1.549000000    -4.281000000
O     1.166000000     7.286000000    -1.074000000
H     0.435000000     7.882000000    -1.238000000
H     1.511000000     7.085000000    -1.945000000
O     2.422000000    -4.687000000    -3.381000000
H     1.663000000    -4.929000000    -3.912000000
H     2.054000000    -4.190000000    -2.650000000
O    -0.493000000     1.947000000     6.746000000
H     0.279000000     2.362000000     6.361000000
H    -0.580000000     2.356000000     7.608000000
O     0.984000000    -7.629000000     1.080000000
H     0.418000000    -6.927000000     1.401000000
H     1.448000000    -7.242000000     0.338000000
O     4.725000000    -5.149000000     0.801000000
H     4.624000000    -4.204000000     0.909000000
H     4.029000000    -5.395000000     0.191000000
O    -3.995000000     1.722000000     3.826000000
H    -3.869000000     1.874000000     4.763000000
H    -3.128000000     1.853000000     3.443000000
O     2.069000000     3.386000000    -1.693000000
H     2.490000000     2.625000000    -2.094000000
H     1.762000000     3.908000000    -2.434000000
O    -0.815000000     3.114000000    -4.717000000
H    -0.102000000     3.546000000    -4.246000000
H    -0.990000000     3.686000000    -5.464000000
O    -3.076000000     1.767000000    -4.024000000
H    -2.320000000     2.317000000    -4.225000000
H    -3.453000000     2.156000000    -3.235000000
O    -0.174000000    -2.704000000     3.658000000
H     0.605000000    -3.175000000     3.954000000
H     0.005000000    -1.788000000     3.868000000
O    -6.117000000     4.041000000     1.056000000
H    -5.314000000     3.549000000     0.887000000
H    -5.862000000     4.704000000     1.698000000
O     1.472000000     2.984000000     4.969000000
H     1.144000000     3.555000000     4.275000000
H     2.297000000     2.639000000     4.626000000
O     4.087000000    -0.339000000     2.706000000
H     3.761000000    -0.336000000     3.606000000
H     3.995000000     0.568000000     2.414000000
O     2.450000000    -6.791000000     3.226000000
H     2.199000000    -7.191000000     2.393000000
H     2.757000000    -7.523000000     3.760000000
O     4.034000000    -3.568000000     4.389000000
H     4.256000000    -4.432000000     4.737000000
H     3.291000000    -3.728000000     3.807000000
O    -3.290000000    -0.435000000     1.219000000
H    -2.564000000    -0.662000000     0.637000000
H    -4.009000000    -1.000000000     0.937000000
O    -0.622000000    -5.389000000    -1.166000000
H    -0.709000000    -5.419000000    -0.213000000
H     0.070000000    -4.747000000    -1.324000000
O    -2.795000000    -3.480000000    -1.946000000
H    -2.426000000    -2.902000000    -2.614000000
H    -2.230000000    -4.252000000    -1.960000000
O     1.909000000    -4.215000000     2.890000000
H     2.094000000    -5.149000000     2.984000000
H     1.433000000    -4.146000000     2.062000000
O    -1.226000000     6.314000000     2.042000000
H    -1.238000000     7.234000000     1.776000000
H    -1.082000000     5.831000000     1.228000000
O     0.755000000     4.007000000     2.613000000
H     0.099000000     4.519000000     2.140000000
H     1.311000000     3.638000000     1.926000000
O     2.797000000    -0.063000000     5.397000000
H     2.558000000    -0.951000000     5.661000000
H     1.979000000     0.431000000     5.449000000
O    -2.287000000     6.381000000    -2.467000000
H    -2.289000000     6.866000000    -1.642000000
H    -1.378000000     6.416000000    -2.764000000
O    -4.810000000    -0.354000000    -1.945000000
H    -3.901000000    -0.335000000    -2.244000000
H    -5.231000000     0.367000000    -2.412000000
O     4.697000000    -1.124000000    -1.059000000
H     5.276000000    -1.755000000    -1.487000000
H     4.217000000    -1.641000000    -0.412000000
O    -1.275000000     7.020000000     4.624000000
H    -1.365000000     6.936000000     3.674000000
H    -1.905000000     6.393000000     4.979000000
O     1.183000000    -2.702000000    -7.099000000
H     1.303000000    -3.636000000    -6.925000000
H     1.177000000    -2.297000000    -6.232000000
O     3.096000000     0.862000000    -2.172000000
H     3.617000000     0.213000000    -1.699000000
H     2.831000000     0.417000000    -2.976000000
O    -1.060000000    -5.641000000     1.610000000
H    -0.814000000    -4.860000000     2.105000000
H    -1.607000000    -6.144000000     2.213000000
O    -1.436000000     2.690000000     3.757000000
H    -0.595000000     3.013000000     3.433000000
H    -1.583000000     3.177000000     4.568000000
O     4.573000000    -3.465000000    -4.487000000
H     5.031000000    -3.309000000    -3.661000000
H     3.895000000    -4.104000000    -4.268000000
O    -1.044000000    -7.942000000    -2.206000000
H    -0.842000000    -7.151000000    -1.707000000
H    -0.284000000    -8.068000000    -2.774000000
O     3.702000000    -2.747000000     0.986000000
H     2.811000000    -3.063000000     0.835000000
H     3.613000000    -2.110000000     1.695000000
O    -2.817000000    -2.081000000     3.644000000
H    -1.881000000    -2.273000000     3.596000000
H    -2.935000000    -1.317000000     3.079000000
O    -3.891000000     2.409000000     0.697000000
H    -3.768000000     1.560000000     1.122000000
H    -3.090000000     2.894000000     0.895000000
O     6.293000000    -2.260000000     2.971000000
H     5.837000000    -2.995000000     3.380000000
H     5.606000000    -1.617000000     2.799000000
O    -3.991000000     3.275000000    -2.168000000
H    -4.240000000     2.763000000    -1.398000000
H    -4.111000000     4.186000000    -1.898000000
O     2.397000000     2.469000000     0.777000000
H     2.121000000     2.909000000    -0.027000000
H     1.939000000     1.629000000     0.760000000
O     3.819000000     5.671000000    -1.626000000
H     4.568000000     5.336000000    -1.135000000
H     3.087000000     5.621000000    -1.011000000
O     4.594000000     4.202000000     0.728000000
H     3.964000000     3.534000000     0.458000000
H     4.061000000     4.883000000     1.137000000
O     0.543000000    -2.546000000    -4.269000000
H     0.731000000    -2.996000000    -3.445000000
H    -0.362000000    -2.247000000    -4.177000000
O    -2.008000000    -1.248000000    -4.504000000
H    -2.181000000    -1.452000000    -5.423000000
H    -2.686000000    -0.615000000    -4.267000000
O    -0.042000000     0.296000000     4.438000000
H    -0.670000000     0.692000000     3.833000000
H    -0.137000000     0.800000000     5.246000000
O     0.074000000     4.463000000    -0.133000000
H     0.341000000     3.761000000    -0.727000000
H     0.429000000     5.259000000    -0.529000000
