158
-3048.37232
C     0.439000000    -0.316000000    -1.383000000
H     0.991000000    -0.438000000    -2.312000000
C     0.537000000     0.924000000    -0.745000000
H     0.973000000     1.752000000    -1.297000000
C     0.136000000     1.071000000     0.534000000
H     0.052000000     2.075000000     0.977000000
C    -0.476000000     0.033000000     1.213000000
H    -0.774000000     0.247000000     2.236000000
C    -0.487000000    -1.259000000     0.702000000
H    -0.965000000    -2.075000000     1.238000000
C    -0.201000000    -1.374000000    -0.687000000
C    -0.447000000    -2.655000000    -1.494000000
O    -0.825000000    -3.704000000    -0.885000000
O    -0.317000000    -2.733000000    -2.664000000
O     5.290000000    -2.892000000    -1.789000000
H     4.738000000    -3.468000000    -2.319000000
H     4.672000000    -2.322000000    -1.332000000
O     1.962000000    -1.922000000     5.187000000
H     2.104000000    -2.171000000     6.100000000
H     1.286000000    -2.525000000     4.876000000
O     3.916000000    -0.237000000    -3.166000000
H     3.479000000    -0.081000000    -4.003000000
H     4.269000000    -1.124000000    -3.242000000
O     4.110000000    -2.891000000    -4.218000000
H     4.600000000    -3.257000000    -4.954000000
H     3.210000000    -2.830000000    -4.537000000
O     0.899000000    -7.320000000    -1.000000000
H     1.821000000    -7.569000000    -1.070000000
H     0.898000000    -6.573000000    -0.400000000
O     1.584000000    -4.918000000    -2.462000000
H     0.891000000    -5.130000000    -1.837000000
H     1.579000000    -3.962000000    -2.512000000
O     3.120000000     0.646000000    -5.843000000
H     2.925000000     0.622000000    -6.780000000
H     3.883000000     1.219000000    -5.772000000
O     3.766000000     3.573000000    -2.373000000
H     2.896000000     3.872000000    -2.108000000
H     3.831000000     2.685000000    -2.021000000
O    -2.723000000    -2.593000000     5.772000000
H    -3.278000000    -2.802000000     5.021000000
H    -2.320000000    -1.755000000     5.546000000
O    -2.846000000    -2.905000000    -6.864000000
H    -2.672000000    -2.484000000    -6.022000000
H    -3.072000000    -3.807000000    -6.639000000
O     0.236000000    -7.429000000    -3.676000000
H     0.471000000    -7.351000000    -2.751000000
H     0.407000000    -6.561000000    -4.041000000
O     1.385000000     4.898000000    -1.595000000
H     0.520000000     4.860000000    -2.004000000
H     1.222000000     4.707000000    -0.671000000
O     1.351000000     3.648000000     4.648000000
H     1.979000000     4.237000000     5.067000000
H     1.610000000     2.774000000     4.941000000
O    -2.632000000    -2.149000000    -3.870000000
H    -2.780000000    -1.208000000    -3.777000000
H    -1.806000000    -2.308000000    -3.414000000
O    -0.059000000    -3.456000000     4.023000000
H    -0.227000000    -4.352000000     4.313000000
H    -0.930000000    -3.080000000     3.892000000
O     5.353000000     3.944000000     3.356000000
H     4.864000000     3.642000000     2.591000000
H     6.267000000     3.751000000     3.147000000
O     1.933000000     0.710000000     4.533000000
H     2.797000000     1.098000000     4.673000000
H     2.072000000    -0.230000000     4.642000000
O     2.255000000    -3.050000000     2.377000000
H     2.761000000    -3.758000000     2.776000000
H     1.575000000    -2.849000000     3.020000000
O    -2.679000000    -3.974000000     3.125000000
H    -2.641000000    -3.904000000     2.171000000
H    -3.077000000    -4.829000000     3.286000000
O    -2.373000000     1.051000000    -3.501000000
H    -1.436000000     1.085000000    -3.695000000
H    -2.790000000     1.454000000    -4.262000000
O    -0.184000000    -1.800000000    -6.864000000
H     0.093000000    -1.197000000    -7.554000000
H    -0.946000000    -2.249000000    -7.230000000
O    -0.686000000    -4.575000000    -4.696000000
H    -1.226000000    -4.948000000    -4.000000000
H    -0.219000000    -3.853000000    -4.276000000
O    -4.455000000    -2.872000000    -1.152000000
H    -4.278000000    -1.964000000    -1.395000000
H    -4.687000000    -3.299000000    -1.977000000
O    -2.997000000    -4.200000000     0.462000000
H    -3.600000000    -3.731000000    -0.115000000
H    -2.136000000    -4.075000000     0.062000000
O     0.374000000     7.218000000     1.346000000
H     0.317000000     8.110000000     1.004000000
H     1.282000000     7.129000000     1.634000000
O     1.519000000     4.521000000     1.312000000
H     1.873000000     3.711000000     1.679000000
H     1.771000000     5.198000000     1.940000000
O    -0.896000000    -0.033000000     5.142000000
H    -1.207000000     0.846000000     4.926000000
H    -0.114000000    -0.150000000     4.602000000
O    -1.662000000     5.608000000     5.457000000
H    -2.336000000     5.913000000     6.064000000
H    -2.151000000     5.226000000     4.728000000
O    -2.445000000     7.134000000     0.032000000
H    -2.372000000     6.562000000     0.796000000
H    -1.603000000     7.046000000    -0.414000000
O     3.716000000     6.412000000     0.229000000
H     3.123000000     5.704000000     0.480000000
H     4.539000000     5.971000000     0.018000000
O     2.499000000     1.954000000     2.157000000
H     1.844000000     1.543000000     1.592000000
H     2.365000000     1.548000000     3.013000000
O    -4.012000000    -0.139000000     1.547000000
H    -4.171000000     0.722000000     1.161000000
H    -4.182000000    -0.756000000     0.836000000
O    -1.363000000     2.625000000     4.574000000
H    -0.483000000     2.894000000     4.838000000
H    -1.676000000     3.340000000     4.019000000
O     3.862000000     1.209000000    -0.883000000
H     3.780000000     0.588000000    -1.607000000
H     4.410000000     0.757000000    -0.241000000
O    -2.543000000    -5.328000000    -2.397000000
H    -3.242000000    -4.768000000    -2.733000000
H    -2.106000000    -4.794000000    -1.734000000
O     0.790000000    -4.912000000     0.716000000
H     1.216000000    -4.291000000     1.308000000
H     0.146000000    -4.386000000     0.241000000
O    -3.919000000    -0.159000000    -1.557000000
H    -4.475000000     0.464000000    -1.091000000
H    -3.388000000     0.384000000    -2.141000000
O    -1.556000000     3.347000000    -1.771000000
H    -1.277000000     3.592000000    -2.653000000
H    -1.518000000     2.390000000    -1.764000000
O    -4.460000000     4.106000000    -1.099000000
H    -5.005000000     4.640000000    -1.677000000
H    -3.674000000     4.634000000    -0.955000000
O    -1.583000000     4.472000000     0.637000000
H    -0.696000000     4.817000000     0.737000000
H    -1.585000000     4.060000000    -0.227000000
O    -0.449000000     4.628000000    -3.934000000
H     0.387000000     4.983000000    -4.234000000
H    -1.014000000     4.658000000    -4.706000000
O    -4.782000000    -3.591000000    -3.707000000
H    -4.129000000    -2.929000000    -3.935000000
H    -5.578000000    -3.306000000    -4.156000000
O     3.568000000    -1.919000000     0.130000000
H     3.815000000    -1.043000000     0.428000000
H     3.132000000    -2.314000000     0.886000000
O     1.296000000    -2.180000000    -4.754000000
H     0.690000000    -2.238000000    -4.016000000
H     0.740000000    -1.973000000    -5.505000000
O    -2.965000000     4.633000000     3.125000000
H    -2.442000000     4.554000000     2.327000000
H    -3.749000000     4.113000000     2.949000000
O     0.129000000     1.764000000    -4.602000000
H     0.124000000     2.634000000    -5.001000000
H     1.011000000     1.431000000    -4.766000000
O    -3.525000000    -0.153000000     4.204000000
H    -3.620000000    -0.166000000     3.251000000
H    -2.580000000    -0.108000000     4.349000000
O     4.285000000     3.405000000     0.724000000
H     4.044000000     3.304000000    -0.197000000
H     3.604000000     2.932000000     1.203000000
