158
-3043.45367
C     1.129000000     0.012000000    -0.845000000
H     2.060000000     0.105000000    -1.399000000
C     0.548000000     1.125000000    -0.308000000
H     0.940000000     2.124000000    -0.482000000
C    -0.500000000     0.954000000     0.586000000
H    -1.051000000     1.882000000     0.934000000
C    -1.017000000    -0.312000000     0.862000000
H    -1.882000000    -0.410000000     1.514000000
C    -0.504000000    -1.429000000     0.163000000
H    -0.894000000    -2.407000000     0.436000000
C     0.590000000    -1.278000000    -0.730000000
C     1.191000000    -2.402000000    -1.522000000
O     0.861000000    -3.583000000    -1.275000000
O     1.917000000    -2.292000000    -2.477000000
O     5.177000000     2.218000000    -1.678000000
H     5.212000000     2.763000000    -2.464000000
H     5.191000000     1.320000000    -2.009000000
O     4.785000000     1.048000000    -4.502000000
H     5.096000000     1.078000000    -5.406000000
H     3.856000000     1.268000000    -4.560000000
O     4.588000000    -3.214000000    -1.903000000
H     3.674000000    -3.012000000    -1.703000000
H     4.980000000    -3.418000000    -1.054000000
O    -1.126000000     4.809000000     5.309000000
H    -0.190000000     4.697000000     5.471000000
H    -1.531000000     4.034000000     5.699000000
O    -5.009000000    -1.338000000     5.475000000
H    -5.963000000    -1.311000000     5.409000000
H    -4.705000000    -1.286000000     4.569000000
O    -4.077000000    -1.130000000     3.047000000
H    -4.094000000    -1.353000000     2.116000000
H    -3.746000000    -0.233000000     3.073000000
O    -4.930000000    -1.081000000     0.269000000
H    -4.591000000    -1.498000000    -0.523000000
H    -5.846000000    -1.357000000     0.312000000
O    -0.416000000    -6.685000000    -3.859000000
H    -0.137000000    -7.590000000    -3.721000000
H     0.353000000    -6.160000000    -3.637000000
O    -1.262000000     5.460000000    -2.689000000
H    -1.737000000     6.269000000    -2.504000000
H    -1.108000000     5.483000000    -3.634000000
O     5.318000000    -0.691000000    -2.365000000
H     5.024000000    -0.273000000    -3.174000000
H     5.035000000    -1.602000000    -2.450000000
O     3.142000000     5.381000000    -2.299000000
H     3.925000000     4.974000000    -2.669000000
H     3.346000000     5.490000000    -1.370000000
O     2.450000000     4.267000000     2.260000000
H     1.556000000     3.925000000     2.222000000
H     2.906000000     3.679000000     2.862000000
O     0.320000000    -2.950000000    -5.140000000
H     0.874000000    -3.478000000    -4.565000000
H     0.515000000    -2.045000000    -4.895000000
O    -0.896000000    -4.660000000     3.553000000
H    -1.121000000    -5.494000000     3.141000000
H    -1.739000000    -4.286000000     3.812000000
O     1.070000000    -2.641000000     3.560000000
H     1.831000000    -2.928000000     4.065000000
H     0.403000000    -3.306000000     3.733000000
O    -3.205000000    -3.605000000     4.404000000
H    -3.357000000    -2.855000000     3.829000000
H    -4.000000000    -3.666000000     4.933000000
O    -2.843000000     3.412000000    -1.839000000
H    -1.913000000     3.640000000    -1.818000000
H    -2.865000000     2.527000000    -2.203000000
O    -3.583000000    -0.088000000    -2.764000000
H    -3.539000000    -1.021000000    -2.557000000
H    -2.709000000     0.125000000    -3.092000000
O    -2.739000000     2.378000000     6.540000000
H    -3.569000000     2.621000000     6.950000000
H    -2.982000000     2.091000000     5.660000000
O     1.887000000    -5.227000000    -3.104000000
H     1.654000000    -4.677000000    -2.356000000
H     2.329000000    -4.632000000    -3.710000000
O    -4.506000000    -2.769000000    -2.352000000
H    -4.996000000    -3.141000000    -3.086000000
H    -3.588000000    -2.905000000    -2.584000000
O     4.923000000     0.154000000     2.126000000
H     5.247000000    -0.744000000     2.068000000
H     4.024000000     0.065000000     2.444000000
O    -4.120000000    -5.681000000    -0.509000000
H    -3.362000000    -5.114000000    -0.654000000
H    -3.937000000    -6.463000000    -1.030000000
O     1.476000000     3.700000000    -4.491000000
H     1.879000000     4.374000000    -3.945000000
H     1.455000000     4.083000000    -5.368000000
O    -5.762000000     2.694000000     3.923000000
H    -5.189000000     2.083000000     3.461000000
H    -5.172000000     3.366000000     4.264000000
O    -0.926000000    -1.448000000     6.138000000
H    -1.211000000    -1.190000000     5.261000000
H    -0.295000000    -0.774000000     6.391000000
O    -1.461000000     7.194000000     3.940000000
H    -0.851000000     6.564000000     3.556000000
H    -1.589000000     6.886000000     4.838000000
O    -5.051000000     1.425000000     1.423000000
H    -5.326000000     0.595000000     1.034000000
H    -4.543000000     1.855000000     0.735000000
O    -1.852000000     4.232000000     2.097000000
H    -2.691000000     4.563000000     1.777000000
H    -1.231000000     4.938000000     1.915000000
O     0.434000000     1.912000000     4.916000000
H     1.036000000     1.171000000     4.987000000
H     0.976000000     2.629000000     4.588000000
O     5.316000000     2.728000000     0.953000000
H     5.306000000     2.448000000     0.038000000
H     4.883000000     2.017000000     1.427000000
O    -1.114000000     1.028000000    -3.196000000
H    -0.470000000     1.550000000    -3.674000000
H    -0.687000000     0.823000000    -2.365000000
O    -2.053000000    -4.433000000    -1.657000000
H    -2.173000000    -4.415000000    -2.606000000
H    -1.104000000    -4.396000000    -1.535000000
O     2.295000000    -3.607000000     1.256000000
H     1.745000000    -3.294000000     1.975000000
H     1.798000000    -3.395000000     0.465000000
O    -4.829000000     4.896000000    -0.818000000
H    -4.759000000     5.039000000     0.126000000
H    -4.119000000     4.287000000    -1.021000000
O     3.033000000    -4.353000000    -5.690000000
H     3.237000000    -4.547000000    -6.605000000
H     3.300000000    -3.441000000    -5.573000000
O     0.801000000     5.767000000    -0.922000000
H     1.487000000     5.703000000    -1.586000000
H    -0.009000000     5.576000000    -1.395000000
O     6.126000000    -5.117000000    -3.229000000
H     5.926000000    -5.607000000    -2.431000000
H     5.599000000    -4.321000000    -3.160000000
O     4.734000000    -4.498000000     0.526000000
H     3.883000000    -4.309000000     0.922000000
H     4.912000000    -5.408000000     0.766000000
O     0.399000000     5.896000000     1.737000000
H     1.216000000     6.357000000     1.928000000
H     0.352000000     5.880000000     0.781000000
O     0.763000000    -8.638000000    -0.202000000
H     0.881000000    -7.697000000    -0.069000000
H     1.312000000    -8.843000000    -0.959000000
O    -2.576000000    -3.240000000    -4.133000000
H    -1.687000000    -2.918000000    -4.286000000
H    -2.904000000    -3.461000000    -5.004000000
O     2.221000000    -0.110000000     3.046000000
H     1.834000000     0.366000000     2.311000000
H     1.568000000    -0.771000000     3.274000000
O     3.245000000    -1.606000000    -4.538000000
H     2.958000000    -1.866000000    -3.663000000
H     2.877000000    -0.730000000    -4.660000000
O     1.066000000    -5.948000000     0.699000000
H     1.771000000    -5.394000000     1.035000000
H     0.651000000    -5.419000000     0.017000000
O     1.945000000     0.992000000    -4.631000000
H     1.949000000     1.946000000    -4.557000000
H     1.235000000     0.802000000    -5.245000000
O    -2.373000000     1.863000000     3.883000000
H    -2.529000000     2.714000000     3.473000000
H    -1.525000000     1.960000000     4.318000000
O     4.061000000     5.289000000     0.329000000
H     4.440000000     4.410000000     0.357000000
H     3.203000000     5.193000000     0.741000000
