158
-3007.72243
C    -1.373000000    -0.446000000     0.064000000
H    -2.363000000    -0.888000000    -0.022000000
C    -0.523000000    -0.609000000    -1.000000000
H    -0.870000000    -1.210000000    -1.836000000
C     0.772000000    -0.207000000    -0.906000000
H     1.512000000    -0.373000000    -1.725000000
C     1.197000000     0.603000000     0.166000000
H     2.219000000     0.968000000     0.228000000
C     0.312000000     0.891000000     1.213000000
H     0.684000000     1.440000000     2.074000000
C    -0.987000000     0.347000000     1.185000000
C    -1.944000000     0.646000000     2.395000000
O    -1.525000000     1.363000000     3.297000000
O    -3.058000000     0.131000000     2.496000000
O    -0.685000000    -1.399000000     4.687000000
H    -1.026000000    -0.529000000     4.481000000
H    -0.020000000    -1.561000000     4.018000000
O     6.755000000    -3.145000000    -1.179000000
H     6.302000000    -2.755000000    -1.926000000
H     6.086000000    -3.202000000    -0.496000000
O     2.469000000    -4.908000000    -5.663000000
H     1.763000000    -4.608000000    -6.235000000
H     2.295000000    -4.484000000    -4.823000000
O     0.333000000     0.452000000    -5.750000000
H    -0.062000000    -0.417000000    -5.818000000
H    -0.328000000     0.980000000    -5.302000000
O    -2.573000000    -2.579000000     2.329000000
H    -2.784000000    -1.646000000     2.316000000
H    -3.366000000    -3.009000000     2.009000000
O     6.020000000     0.435000000     0.371000000
H     6.958000000     0.552000000     0.519000000
H     5.771000000    -0.280000000     0.956000000
O    -1.207000000     3.922000000     3.735000000
H    -1.373000000     2.992000000     3.583000000
H    -0.971000000     4.268000000     2.874000000
O    -4.758000000    -3.599000000     0.970000000
H    -4.472000000    -4.276000000     0.357000000
H    -5.565000000    -3.254000000     0.587000000
O     4.347000000    -1.119000000    -1.135000000
H     3.574000000    -0.592000000    -0.935000000
H     5.085000000    -0.576000000    -0.861000000
O    -6.289000000    -0.891000000     5.201000000
H    -5.724000000    -0.770000000     5.964000000
H    -6.631000000    -1.781000000     5.295000000
O    -3.442000000    -2.612000000    -2.679000000
H    -4.302000000    -2.887000000    -2.361000000
H    -3.628000000    -2.125000000    -3.481000000
O    -7.658000000     3.144000000     2.435000000
H    -6.789000000     2.749000000     2.504000000
H    -7.553000000     3.843000000     1.789000000
O    -2.710000000     0.451000000     5.616000000
H    -3.461000000    -0.127000000     5.484000000
H    -2.672000000     0.980000000     4.819000000
O     4.151000000     1.288000000    -3.595000000
H     4.025000000     2.159000000    -3.219000000
H     5.099000000     1.161000000    -3.594000000
O     2.170000000    -1.026000000    -3.946000000
H     2.801000000    -0.385000000    -3.620000000
H     1.655000000    -0.547000000    -4.595000000
O    -5.331000000     1.678000000     2.280000000
H    -5.918000000     1.005000000     1.935000000
H    -4.554000000     1.197000000     2.562000000
O    -0.134000000     5.081000000     6.009000000
H    -0.925000000     4.750000000     5.583000000
H     0.493000000     5.193000000     5.295000000
O     1.967000000     5.310000000     4.384000000
H     2.321000000     5.205000000     3.501000000
H     2.161000000     6.219000000     4.613000000
O     4.993000000     2.307000000     2.660000000
H     4.349000000     2.545000000     1.993000000
H     4.483000000     1.866000000     3.339000000
O    -3.392000000     0.865000000    -1.865000000
H    -3.931000000     0.375000000    -1.244000000
H    -2.910000000     0.193000000    -2.346000000
O    -7.050000000    -0.864000000     2.376000000
H    -6.682000000    -0.761000000     3.253000000
H    -7.856000000    -0.348000000     2.392000000
O     1.527000000    -3.816000000    -3.003000000
H     1.696000000    -2.896000000    -3.205000000
H     0.709000000    -3.806000000    -2.506000000
O    -4.340000000     3.138000000     0.002000000
H    -4.231000000     2.392000000    -0.588000000
H    -4.743000000     2.765000000     0.786000000
O     6.210000000    -2.197000000    -4.543000000
H     5.446000000    -2.648000000    -4.183000000
H     5.856000000    -1.650000000    -5.244000000
O     2.726000000     4.221000000    -3.232000000
H     2.447000000     4.409000000    -4.128000000
H     2.356000000     4.934000000    -2.711000000
O    -2.100000000     1.764000000     7.811000000
H    -1.289000000     2.033000000     7.380000000
H    -2.547000000     1.221000000     7.163000000
O    -0.887000000    -3.811000000    -1.833000000
H    -0.925000000    -3.908000000    -0.882000000
H    -1.726000000    -3.414000000    -2.068000000
O    -3.148000000    -2.564000000     5.061000000
H    -3.212000000    -2.960000000     4.192000000
H    -2.330000000    -2.068000000     5.038000000
O     3.605000000     1.900000000     4.878000000
H     3.759000000     2.828000000     5.055000000
H     3.047000000     1.608000000     5.599000000
O     2.319000000    -4.275000000     0.727000000
H     2.026000000    -5.078000000     0.295000000
H     1.557000000    -3.697000000     0.700000000
O     2.477000000     2.059000000    -5.960000000
H     1.688000000     1.534000000    -5.828000000
H     3.075000000     1.770000000    -5.271000000
O    -3.734000000     4.736000000     5.298000000
H    -3.301000000     5.471000000     4.865000000
H    -3.517000000     3.977000000     4.756000000
O    -1.620000000     2.107000000    -4.883000000
H    -1.421000000     2.886000000    -5.401000000
H    -1.645000000     2.420000000    -3.979000000
O     5.101000000    -3.786000000     1.058000000
H     5.416000000    -4.669000000     1.245000000
H     4.175000000    -3.902000000     0.844000000
O     4.467000000     3.264000000    -0.245000000
H     4.923000000     3.714000000    -0.957000000
H     5.131000000     2.694000000     0.142000000
O    -1.677000000    -4.882000000    -4.500000000
H    -2.584000000    -4.995000000    -4.216000000
H    -1.213000000    -4.601000000    -3.712000000
O    -5.274000000    -0.573000000    -0.407000000
H    -5.013000000    -1.152000000     0.309000000
H    -5.991000000    -1.037000000    -0.841000000
O     1.392000000    -1.668000000     2.790000000
H     1.080000000    -1.139000000     2.056000000
H     1.836000000    -2.410000000     2.380000000
O    -1.025000000     4.017000000    -2.538000000
H    -0.282000000     4.610000000    -2.429000000
H    -0.990000000     3.447000000    -1.770000000
O     0.132000000     1.668000000     6.060000000
H     0.965000000     2.093000000     5.855000000
H    -0.328000000     1.626000000     5.222000000
O    -3.990000000    -1.830000000    -5.146000000
H    -3.072000000    -1.844000000    -5.416000000
H    -4.475000000    -1.662000000    -5.954000000
O    -0.454000000     5.077000000     0.890000000
H     0.443000000     4.892000000     1.168000000
H    -0.356000000     5.562000000     0.071000000
O     4.096000000    -1.970000000     3.972000000
H     3.891000000    -2.901000000     3.887000000
H     3.289000000    -1.523000000     3.717000000
O    -6.074000000     1.227000000    -3.100000000
H    -6.514000000     0.377000000    -3.130000000
H    -5.188000000     1.026000000    -2.797000000
O    -0.337000000    -4.148000000     1.439000000
H    -0.326000000    -5.040000000     1.786000000
H    -1.035000000    -3.711000000     1.928000000
O     4.327000000    -3.102000000    -2.902000000
H     3.541000000    -3.645000000    -2.844000000
H     4.161000000    -2.375000000    -2.302000000
O    -1.288000000    -2.454000000    -5.698000000
H    -1.527000000    -3.100000000    -5.032000000
H    -0.605000000    -2.884000000    -6.214000000
O     2.810000000     5.061000000     0.955000000
H     2.576000000     5.656000000     0.243000000
H     3.254000000     4.332000000     0.521000000
