158
-3021.90845
C     0.751000000    -1.066000000    -0.650000000
H     1.267000000    -1.951000000    -1.012000000
C     0.627000000    -0.911000000     0.723000000
H     1.009000000    -1.546000000     1.519000000
C    -0.162000000     0.131000000     1.201000000
H    -0.229000000     0.332000000     2.258000000
C    -0.763000000     1.041000000     0.394000000
H    -1.362000000     1.839000000     0.827000000
C    -0.474000000     0.995000000    -1.018000000
H    -1.023000000     1.614000000    -1.722000000
C     0.253000000    -0.105000000    -1.537000000
C     0.412000000    -0.319000000    -3.077000000
O     0.154000000     0.676000000    -3.750000000
O     0.978000000    -1.269000000    -3.587000000
O    -2.365000000     4.108000000    -4.913000000
H    -1.709000000     4.502000000    -4.338000000
H    -3.202000000     4.420000000    -4.570000000
O     0.961000000    -5.439000000    -2.992000000
H     1.078000000    -5.824000000    -2.124000000
H     1.550000000    -4.685000000    -3.002000000
O    -3.276000000     4.207000000     2.945000000
H    -4.017000000     3.758000000     3.351000000
H    -2.653000000     3.508000000     2.744000000
O     1.531000000    -1.996000000     4.224000000
H     1.239000000    -2.900000000     4.101000000
H     0.783000000    -1.556000000     4.629000000
O     1.399000000     5.171000000    -5.260000000
H     1.694000000     4.998000000    -6.154000000
H     1.031000000     4.338000000    -4.965000000
O     1.045000000    -5.152000000    -6.423000000
H     0.546000000    -4.576000000    -5.844000000
H     1.718000000    -4.586000000    -6.801000000
O    -0.133000000     5.629000000     0.905000000
H    -0.877000000     5.069000000     0.686000000
H    -0.382000000     6.495000000     0.584000000
O    -1.746000000    -5.617000000    -3.580000000
H    -0.889000000    -5.193000000    -3.640000000
H    -2.230000000    -5.090000000    -2.944000000
O     2.256000000    -1.305000000    -6.272000000
H     2.129000000    -0.394000000    -6.538000000
H     1.928000000    -1.340000000    -5.374000000
O     5.015000000     1.771000000     3.253000000
H     5.513000000     0.980000000     3.049000000
H     4.179000000     1.448000000     3.590000000
O    -3.365000000    -1.426000000     5.278000000
H    -3.674000000    -1.494000000     6.181000000
H    -4.161000000    -1.303000000     4.761000000
O    -0.384000000     4.972000000    -2.816000000
H    -0.325000000     5.922000000    -2.715000000
H     0.267000000     4.626000000    -2.205000000
O    -2.554000000     4.812000000    -1.115000000
H    -1.892000000     5.001000000    -1.780000000
H    -2.979000000     4.011000000    -1.421000000
O    -5.105000000     2.242000000     4.434000000
H    -5.236000000     2.335000000     5.377000000
H    -4.509000000     1.498000000     4.348000000
O     3.697000000     1.768000000    -1.571000000
H     3.994000000     1.436000000    -0.724000000
H     3.727000000     1.007000000    -2.151000000
O     2.727000000    -3.012000000    -3.074000000
H     3.211000000    -2.622000000    -2.346000000
H     2.157000000    -2.310000000    -3.387000000
O    -4.233000000     2.710000000    -1.959000000
H    -5.013000000     2.350000000    -1.537000000
H    -4.064000000     2.120000000    -2.693000000
O     4.690000000     0.330000000     0.408000000
H     5.595000000     0.372000000     0.717000000
H     4.175000000     0.700000000     1.125000000
O    -2.201000000     1.469000000    -4.803000000
H    -2.245000000     2.419000000    -4.913000000
H    -1.305000000     1.304000000    -4.509000000
O     5.963000000    -0.872000000     2.761000000
H     5.151000000    -1.378000000     2.759000000
H     6.560000000    -1.375000000     2.206000000
O    -5.911000000    -0.214000000     1.813000000
H    -5.064000000    -0.584000000     1.565000000
H    -5.927000000    -0.270000000     2.769000000
O     1.903000000     2.672000000     5.838000000
H     1.744000000     3.554000000     5.503000000
H     1.035000000     2.271000000     5.877000000
O     4.666000000    -4.944000000    -2.715000000
H     3.959000000    -4.323000000    -2.891000000
H     5.203000000    -4.926000000    -3.508000000
O    -2.454000000     0.855000000     3.418000000
H    -1.982000000     0.370000000     4.095000000
H    -2.847000000     0.176000000     2.868000000
O    -0.181000000    -4.587000000     4.662000000
H     0.568000000    -4.456000000     5.243000000
H    -0.122000000    -5.505000000     4.398000000
O    -0.542000000     2.868000000     3.076000000
H    -1.073000000     2.181000000     2.673000000
H    -1.001000000     3.080000000     3.889000000
O     4.639000000     1.881000000    -5.058000000
H     3.743000000     2.150000000    -4.854000000
H     4.762000000     1.068000000    -4.568000000
O    -0.699000000    -0.842000000     5.511000000
H    -0.329000000    -0.524000000     6.335000000
H    -1.614000000    -1.033000000     5.718000000
O     2.882000000     5.045000000     1.931000000
H     2.530000000     5.604000000     1.238000000
H     2.755000000     4.153000000     1.606000000
O    -2.464000000    -1.274000000    -3.876000000
H    -3.256000000    -1.098000000    -3.368000000
H    -2.250000000    -0.434000000    -4.283000000
O     3.173000000    -3.578000000    -7.389000000
H     3.104000000    -3.429000000    -8.331000000
H     2.820000000    -2.781000000    -6.993000000
O     1.677000000     3.821000000    -1.495000000
H     2.125000000     2.987000000    -1.351000000
H     1.966000000     4.376000000    -0.771000000
O     2.122000000     2.356000000     1.595000000
H     1.459000000     2.760000000     2.157000000
H     1.639000000     1.707000000     1.084000000
O    -0.329000000    -2.856000000    -5.329000000
H    -1.161000000    -2.389000000    -5.407000000
H     0.170000000    -2.350000000    -4.689000000
O     2.432000000    -4.059000000     0.253000000
H     2.594000000    -3.896000000     1.182000000
H     3.121000000    -3.573000000    -0.200000000
O    -5.304000000     4.387000000     1.018000000
H    -5.311000000     3.581000000     0.502000000
H    -4.540000000     4.301000000     1.587000000
O     2.492000000    -6.439000000    -1.020000000
H     3.312000000    -6.214000000    -1.460000000
H     2.298000000    -5.678000000    -0.472000000
O     0.955000000     1.008000000    -6.462000000
H     0.770000000     0.797000000    -5.547000000
H     0.325000000     1.693000000    -6.682000000
O     3.984000000    -2.054000000    -0.865000000
H     4.855000000    -2.435000000    -0.757000000
H     4.059000000    -1.175000000    -0.492000000
O    -0.184000000    -4.422000000     0.209000000
H     0.699000000    -4.066000000     0.110000000
H    -0.646000000    -4.139000000    -0.580000000
O    -2.085000000    -3.095000000    -1.851000000
H    -1.855000000    -2.569000000    -2.618000000
H    -2.833000000    -2.641000000    -1.465000000
O    -3.090000000    -1.144000000     1.732000000
H    -2.575000000    -1.845000000     2.132000000
H    -3.105000000    -1.361000000     0.799000000
O    -2.051000000    -3.620000000     2.093000000
H    -1.762000000    -4.073000000     2.886000000
H    -1.354000000    -3.782000000     1.457000000
O     2.126000000     2.708000000    -4.227000000
H     2.001000000     3.327000000    -3.507000000
H     1.454000000     2.041000000    -4.089000000
O     2.639000000    -5.342000000     2.785000000
H     3.354000000    -5.979000000     2.772000000
H     1.896000000    -5.823000000     3.148000000
O     4.673000000    -0.335000000    -3.046000000
H     5.054000000    -0.958000000    -3.665000000
H     4.323000000    -0.880000000    -2.342000000
O     3.836000000    -2.733000000     2.958000000
H     3.002000000    -2.714000000     3.427000000
H     4.180000000    -3.612000000     3.116000000
O     3.171000000    -0.058000000     4.883000000
H     2.600000000     0.645000000     5.192000000
H     2.578000000    -0.787000000     4.703000000
