158
-3020.29238
C     0.724000000    -1.308000000    -0.355000000
H     1.310000000    -2.203000000    -0.548000000
C     0.621000000    -0.770000000     0.927000000
H     1.003000000    -1.317000000     1.785000000
C    -0.128000000     0.386000000     1.135000000
H    -0.300000000     0.779000000     2.173000000
C    -0.703000000     1.145000000     0.078000000
H    -1.275000000     2.049000000     0.271000000
C    -0.529000000     0.622000000    -1.193000000
H    -0.831000000     1.141000000    -2.098000000
C     0.115000000    -0.616000000    -1.398000000
C     0.336000000    -1.049000000    -2.844000000
O     0.268000000    -0.191000000    -3.699000000
O     0.702000000    -2.166000000    -3.145000000
O     0.316000000     6.042000000    -1.446000000
H     0.397000000     5.488000000    -2.223000000
H    -0.239000000     5.538000000    -0.850000000
O    -4.848000000    -1.312000000     0.366000000
H    -4.153000000    -1.189000000     1.013000000
H    -5.364000000    -0.507000000     0.413000000
O    -4.783000000     1.866000000    -0.292000000
H    -4.184000000     1.977000000    -1.031000000
H    -5.595000000     1.551000000    -0.688000000
O    -4.826000000     1.008000000     2.649000000
H    -5.671000000     1.456000000     2.622000000
H    -4.451000000     1.153000000     1.780000000
O    -0.498000000    -1.038000000     4.370000000
H    -0.443000000    -1.966000000     4.596000000
H    -0.075000000    -0.588000000     5.102000000
O     0.972000000     6.610000000     3.727000000
H     1.054000000     6.742000000     2.782000000
H     0.306000000     5.929000000     3.817000000
O     2.677000000     4.730000000     1.025000000
H     3.587000000     4.880000000     1.282000000
H     2.249000000     5.576000000     1.154000000
O    -1.083000000    -6.217000000    -5.792000000
H    -1.899000000    -6.617000000    -5.491000000
H    -1.037000000    -5.384000000    -5.323000000
O     3.502000000     0.980000000    -5.514000000
H     2.994000000     1.453000000    -4.855000000
H     2.868000000     0.397000000    -5.932000000
O    -2.986000000    -0.106000000     6.543000000
H    -2.893000000    -1.059000000     6.526000000
H    -2.273000000     0.193000000     7.107000000
O    -5.319000000     4.601000000     0.161000000
H    -4.581000000     4.616000000    -0.449000000
H    -5.452000000     3.672000000     0.353000000
O    -0.230000000     4.279000000    -3.527000000
H    -0.605000000     4.980000000    -4.059000000
H    -0.322000000     3.493000000    -4.066000000
O     0.655000000     1.279000000    -7.730000000
H     0.983000000     0.607000000    -7.133000000
H    -0.149000000     0.906000000    -8.093000000
O     2.143000000     3.286000000     3.387000000
H     2.601000000     3.554000000     2.590000000
H     1.223000000     3.229000000     3.127000000
O     1.381000000     3.087000000    -0.671000000
H     1.864000000     3.728000000    -0.149000000
H     0.861000000     2.600000000    -0.032000000
O    -3.331000000     2.514000000    -2.558000000
H    -3.862000000     2.853000000    -3.279000000
H    -2.732000000     3.229000000    -2.345000000
O     0.793000000    -7.267000000    -0.356000000
H     0.609000000    -6.371000000    -0.640000000
H     0.070000000    -7.485000000     0.232000000
O    -1.879000000     2.157000000     4.134000000
H    -1.793000000     1.971000000     5.069000000
H    -2.608000000     1.607000000     3.847000000
O     4.027000000     0.229000000    -1.443000000
H     3.277000000     0.762000000    -1.709000000
H     3.957000000    -0.565000000    -1.973000000
O     3.457000000    -1.667000000    -3.417000000
H     3.626000000    -1.889000000    -4.333000000
H     2.619000000    -2.085000000    -3.219000000
O    -2.389000000     0.133000000    -3.623000000
H    -2.798000000     0.903000000    -3.227000000
H    -1.460000000     0.357000000    -3.677000000
O    -1.502000000     6.097000000     1.232000000
H    -1.783000000     6.844000000     0.704000000
H    -2.223000000     5.953000000     1.846000000
O    -3.312000000     4.665000000     3.763000000
H    -2.876000000     3.860000000     4.042000000
H    -3.378000000     5.190000000     4.560000000
O    -0.352000000     2.066000000    -5.032000000
H     0.113000000     2.030000000    -5.868000000
H    -0.260000000     1.186000000    -4.668000000
O    -2.310000000    -1.300000000     1.956000000
H    -2.460000000    -1.017000000     2.858000000
H    -1.406000000    -1.043000000     1.772000000
O     0.357000000     0.587000000     6.886000000
H     0.683000000     1.452000000     7.137000000
H    -0.238000000     0.341000000     7.594000000
O     0.676000000     3.592000000     6.735000000
H     0.437000000     4.089000000     7.517000000
H    -0.160000000     3.314000000     6.362000000
O     3.114000000    -3.139000000    -6.308000000
H     2.618000000    -3.951000000    -6.196000000
H     3.110000000    -2.986000000    -7.253000000
O    -5.069000000    -0.641000000     4.773000000
H    -4.230000000    -0.405000000     5.170000000
H    -5.063000000    -0.200000000     3.923000000
O     4.548000000     1.029000000     1.111000000
H     4.174000000     0.684000000     0.300000000
H     3.955000000     0.725000000     1.797000000
O     4.699000000    -4.724000000    -1.329000000
H     5.154000000    -4.119000000    -1.915000000
H     4.586000000    -4.231000000    -0.516000000
O    -0.886000000    -3.779000000    -4.500000000
H    -0.382000000    -3.129000000    -4.012000000
H    -0.768000000    -3.534000000    -5.418000000
O    -1.960000000    -1.200000000    -6.297000000
H    -1.730000000    -1.011000000    -5.387000000
H    -1.236000000    -1.738000000    -6.619000000
O    -3.148000000     5.068000000    -1.807000000
H    -3.351000000     5.538000000    -2.616000000
H    -2.886000000     5.753000000    -1.191000000
O     3.045000000     0.204000000     3.286000000
H     2.853000000     1.141000000     3.294000000
H     2.417000000    -0.174000000     3.902000000
O     1.756000000    -5.219000000    -5.764000000
H     1.815000000    -5.494000000    -4.849000000
H     0.838000000    -5.355000000    -5.996000000
O     4.263000000    -3.854000000     1.272000000
H     3.984000000    -3.184000000     1.896000000
H     4.636000000    -4.548000000     1.817000000
O     2.728000000    -5.905000000    -3.037000000
H     3.149000000    -6.699000000    -3.368000000
H     3.290000000    -5.620000000    -2.316000000
O     1.472000000    -0.614000000    -6.109000000
H     1.275000000    -0.874000000    -5.210000000
H     1.879000000    -1.388000000    -6.499000000
O     1.395000000    -4.720000000     1.377000000
H     2.221000000    -4.751000000     0.895000000
H     0.728000000    -4.932000000     0.724000000
O     0.581000000    -4.953000000    -1.792000000
H     1.315000000    -5.055000000    -2.397000000
H     0.126000000    -4.168000000    -2.098000000
O    -3.706000000    -2.406000000    -2.665000000
H    -3.677000000    -2.200000000    -1.730000000
H    -3.341000000    -1.631000000    -3.092000000
O    -3.530000000    -3.636000000     2.041000000
H    -2.974000000    -4.288000000     1.615000000
H    -3.156000000    -2.794000000     1.780000000
O     2.246000000     1.952000000    -2.991000000
H     1.812000000     2.500000000    -2.337000000
H     1.545000000     1.408000000    -3.351000000
O     0.461000000    -3.518000000     4.207000000
H     1.330000000    -3.194000000     4.444000000
H     0.555000000    -3.820000000     3.304000000
O     3.126000000    -2.877000000     5.026000000
H     3.418000000    -2.080000000     5.470000000
H     3.912000000    -3.420000000     4.966000000
O     2.922000000     2.527000000     5.997000000
H     2.049000000     2.808000000     6.272000000
H     2.995000000     2.825000000     5.090000000
O    -0.495000000     4.193000000     2.951000000
H    -1.061000000     3.466000000     3.210000000
H    -1.087000000     4.820000000     2.534000000
