158
-3040.76184
C     0.304000000    -1.367000000    -0.572000000
H     0.646000000    -2.359000000    -0.855000000
C     0.668000000    -0.858000000     0.735000000
H     1.210000000    -1.432000000     1.482000000
C     0.430000000     0.417000000     1.095000000
H     0.893000000     0.845000000     2.045000000
C    -0.207000000     1.265000000     0.214000000
H    -0.381000000     2.322000000     0.402000000
C    -0.739000000     0.743000000    -0.989000000
H    -1.335000000     1.402000000    -1.615000000
C    -0.474000000    -0.577000000    -1.438000000
C    -1.163000000    -1.013000000    -2.683000000
O    -1.590000000    -0.185000000    -3.491000000
O    -1.273000000    -2.216000000    -2.919000000
O    -0.395000000     6.720000000    -1.186000000
H    -0.584000000     5.920000000    -1.677000000
H    -0.678000000     6.524000000    -0.293000000
O     0.351000000    -2.696000000     5.868000000
H    -0.574000000    -2.853000000     6.058000000
H     0.403000000    -2.694000000     4.912000000
O     1.947000000    -0.537000000     5.427000000
H     1.417000000    -1.217000000     5.843000000
H     2.270000000    -0.006000000     6.156000000
O    -4.435000000     3.615000000     1.577000000
H    -3.940000000     4.010000000     0.860000000
H    -3.784000000     3.115000000     2.070000000
O    -3.857000000    -0.696000000     1.091000000
H    -4.194000000    -0.344000000     1.915000000
H    -4.042000000    -0.015000000     0.445000000
O    -4.118000000     1.356000000    -0.594000000
H    -3.912000000     2.278000000    -0.441000000
H    -5.059000000     1.348000000    -0.772000000
O    -4.835000000    -0.017000000     3.623000000
H    -5.605000000     0.052000000     4.187000000
H    -4.163000000     0.496000000     4.071000000
O    -0.001000000     1.330000000     4.427000000
H    -0.848000000     0.994000000     4.718000000
H     0.630000000     0.667000000     4.708000000
O    -0.281000000    -6.679000000    -4.414000000
H    -0.605000000    -5.945000000    -3.891000000
H    -1.070000000    -7.083000000    -4.775000000
O    -2.357000000     0.239000000     5.142000000
H    -2.338000000    -0.696000000     4.937000000
H    -2.603000000     0.277000000     6.066000000
O    -2.358000000     2.403000000     2.560000000
H    -1.875000000     2.103000000     1.790000000
H    -1.885000000     2.025000000     3.301000000
O    -1.003000000     4.510000000    -2.587000000
H    -1.454000000     4.772000000    -3.390000000
H    -0.676000000     3.630000000    -2.772000000
O     1.377000000     1.717000000    -5.588000000
H     0.935000000     0.998000000    -6.040000000
H     0.701000000     2.100000000    -5.030000000
O     5.668000000     0.617000000     5.636000000
H     5.128000000     0.742000000     4.855000000
H     5.618000000    -0.322000000     5.814000000
O     2.635000000     2.902000000     2.381000000
H     2.603000000     3.698000000     2.912000000
H     1.943000000     3.019000000     1.731000000
O     4.063000000     3.920000000     0.003000000
H     4.287000000     4.701000000     0.509000000
H     3.695000000     3.315000000     0.646000000
O    -3.909000000     3.717000000    -3.283000000
H    -4.548000000     3.335000000    -3.885000000
H    -3.078000000     3.308000000    -3.527000000
O    -0.514000000    -5.626000000     0.392000000
H    -0.600000000    -5.183000000    -0.452000000
H    -0.741000000    -4.957000000     1.038000000
O    -2.589000000     4.393000000     4.483000000
H    -2.275000000     4.035000000     5.313000000
H    -2.657000000     3.633000000     3.905000000
O    -4.558000000     1.784000000    -6.548000000
H    -4.227000000     1.037000000    -6.049000000
H    -5.130000000     2.247000000    -5.936000000
O     3.824000000    -1.319000000    -3.103000000
H     4.246000000    -0.920000000    -3.865000000
H     2.942000000    -1.537000000    -3.405000000
O     1.322000000    -2.321000000    -4.066000000
H     1.437000000    -3.176000000    -4.480000000
H     0.373000000    -2.216000000    -3.993000000
O     5.939000000    -0.238000000     1.792000000
H     5.266000000    -0.356000000     2.462000000
H     5.491000000    -0.423000000     0.967000000
O    -3.490000000    -2.803000000    -0.868000000
H    -3.645000000    -2.054000000    -0.294000000
H    -3.084000000    -2.426000000    -1.649000000
O     2.630000000     4.925000000    -2.355000000
H     1.727000000     4.787000000    -2.067000000
H     3.164000000     4.629000000    -1.618000000
O     2.985000000     5.207000000     4.405000000
H     3.861000000     5.447000000     4.104000000
H     2.442000000     5.965000000     4.189000000
O    -1.721000000     2.282000000    -4.288000000
H    -1.655000000     2.227000000    -5.242000000
H    -1.623000000     1.378000000    -3.989000000
O    -1.679000000    -2.135000000     1.538000000
H    -1.239000000    -1.581000000     0.894000000
H    -2.543000000    -1.737000000     1.645000000
O     1.540000000    -4.793000000    -5.479000000
H     2.062000000    -5.517000000    -5.134000000
H     1.321000000    -5.059000000    -6.372000000
O     4.336000000    -0.991000000    -0.409000000
H     4.236000000    -0.973000000    -1.361000000
H     3.442000000    -1.067000000    -0.076000000
O    -4.816000000    -4.657000000    -2.326000000
H    -4.554000000    -4.419000000    -3.215000000
H    -4.347000000    -4.040000000    -1.765000000
O    -3.149000000    -3.933000000    -4.564000000
H    -2.550000000    -3.641000000    -3.877000000
H    -2.605000000    -4.462000000    -5.147000000
O    -3.760000000    -5.797000000     0.537000000
H    -3.703000000    -5.313000000    -0.287000000
H    -3.391000000    -6.656000000     0.337000000
O     0.961000000    -6.007000000     4.252000000
H     0.978000000    -6.514000000     3.440000000
H     0.737000000    -5.118000000     3.975000000
O    -4.041000000    -0.041000000    -4.537000000
H    -3.220000000     0.139000000    -4.080000000
H    -4.294000000    -0.915000000    -4.241000000
O    -3.043000000     3.929000000    -0.806000000
H    -3.354000000     3.869000000    -1.709000000
H    -2.195000000     4.368000000    -0.873000000
O     3.589000000     0.029000000     3.406000000
H     3.226000000     0.864000000     3.110000000
H     2.982000000    -0.268000000     4.085000000
O     2.107000000    -4.302000000    -1.870000000
H     2.743000000    -3.664000000    -2.191000000
H     2.393000000    -5.135000000    -2.245000000
O    -0.739000000    -0.195000000    -6.236000000
H    -1.295000000    -0.093000000    -5.464000000
H    -1.288000000    -0.660000000    -6.867000000
O    -1.366000000     3.541000000     6.782000000
H    -1.405000000     3.302000000     7.708000000
H    -0.469000000     3.334000000     6.519000000
O     2.418000000    -4.248000000     1.798000000
H     3.023000000    -4.228000000     2.540000000
H     2.947000000    -4.561000000     1.065000000
O    -0.591000000    -4.651000000    -2.106000000
H     0.340000000    -4.465000000    -2.224000000
H    -1.033000000    -3.853000000    -2.396000000
O    -2.605000000    -1.958000000    -7.614000000
H    -2.850000000    -2.055000000    -6.693000000
H    -2.945000000    -2.748000000    -8.036000000
O    -2.550000000    -4.841000000     3.256000000
H    -1.706000000    -4.404000000     3.147000000
H    -2.898000000    -4.915000000     2.367000000
O     2.086000000     1.417000000    -2.051000000
H     1.642000000     0.921000000    -2.739000000
H     1.909000000     0.925000000    -1.249000000
O    -0.034000000    -3.689000000     2.924000000
H     0.778000000    -3.791000000     2.428000000
H    -0.511000000    -2.998000000     2.464000000
O     1.380000000     3.412000000     6.178000000
H     1.241000000     2.890000000     5.388000000
H     1.752000000     4.234000000     5.860000000
O    -0.098000000     4.919000000     1.802000000
H    -0.725000000     4.541000000     2.419000000
H    -0.309000000     5.853000000     1.790000000
