158
-3035.23796
C     1.318000000    -0.815000000     0.199000000
H     2.181000000    -1.437000000     0.421000000
C     0.514000000    -0.296000000     1.256000000
H     0.759000000    -0.521000000     2.291000000
C    -0.608000000     0.470000000     0.921000000
H    -1.324000000     0.804000000     1.725000000
C    -0.933000000     0.756000000    -0.375000000
H    -1.824000000     1.349000000    -0.564000000
C    -0.236000000     0.258000000    -1.434000000
H    -0.594000000     0.432000000    -2.445000000
C     0.916000000    -0.550000000    -1.115000000
C     1.776000000    -1.135000000    -2.275000000
O     1.427000000    -0.959000000    -3.443000000
O     2.768000000    -1.818000000    -2.064000000
O     5.301000000     1.569000000    -0.878000000
H     5.769000000     1.641000000    -1.710000000
H     5.587000000     2.331000000    -0.375000000
O    -5.684000000    -1.824000000    -0.568000000
H    -5.523000000    -2.679000000    -0.169000000
H    -4.873000000    -1.336000000    -0.425000000
O     2.289000000    -1.413000000     5.309000000
H     2.331000000    -2.104000000     5.971000000
H     2.478000000    -0.608000000     5.792000000
O    -4.146000000     5.917000000     0.625000000
H    -4.016000000     5.031000000     0.965000000
H    -3.796000000     6.489000000     1.308000000
O    -1.109000000    -2.341000000    -3.024000000
H    -0.452000000    -1.649000000    -3.105000000
H    -1.944000000    -1.875000000    -2.978000000
O    -1.852000000     2.667000000     4.899000000
H    -2.196000000     3.371000000     5.449000000
H    -0.991000000     2.979000000     4.620000000
O     1.831000000     2.705000000    -7.126000000
H     1.872000000     1.781000000    -6.877000000
H     2.301000000     2.750000000    -7.959000000
O    -0.473000000    -3.733000000    -0.834000000
H    -0.874000000    -3.073000000    -1.401000000
H     0.297000000    -4.029000000    -1.318000000
O    -6.145000000     0.296000000    -2.912000000
H    -5.740000000    -0.555000000    -2.745000000
H    -5.500000000     0.933000000    -2.604000000
O     4.532000000    -2.681000000    -7.123000000
H     4.571000000    -2.186000000    -6.304000000
H     3.632000000    -2.569000000    -7.428000000
O    -6.242000000     0.058000000     4.805000000
H    -6.401000000    -0.871000000     4.639000000
H    -5.322000000     0.188000000     4.574000000
O     3.791000000     2.099000000    -4.724000000
H     3.899000000     1.441000000    -5.411000000
H     3.535000000     1.597000000    -3.950000000
O     2.018000000    -1.719000000    -7.754000000
H     2.042000000    -1.180000000    -6.964000000
H     1.606000000    -1.160000000    -8.413000000
O    -2.389000000    -4.836000000     0.644000000
H    -2.478000000    -4.543000000     1.551000000
H    -1.588000000    -4.414000000     0.333000000
O     3.519000000    -3.048000000     3.460000000
H     3.160000000    -2.353000000     4.011000000
H     2.752000000    -3.535000000     3.157000000
O    -1.619000000    -0.176000000    -5.351000000
H    -2.028000000    -0.981000000    -5.667000000
H    -2.203000000     0.136000000    -4.660000000
O    -3.032000000    -0.595000000    -2.655000000
H    -3.120000000     0.334000000    -2.870000000
H    -3.298000000    -0.655000000    -1.738000000
O     0.767000000    -3.889000000     1.897000000
H     0.424000000    -4.721000000     2.224000000
H     0.685000000    -3.953000000     0.945000000
O     1.246000000     3.119000000     0.218000000
H     0.994000000     2.223000000     0.441000000
H     0.449000000     3.632000000     0.350000000
O    -0.275000000     5.283000000    -1.625000000
H    -0.726000000     5.958000000    -2.131000000
H     0.077000000     4.685000000    -2.284000000
O     1.135000000     0.022000000    -5.862000000
H     0.181000000     0.045000000    -5.787000000
H     1.430000000    -0.381000000    -5.045000000
O    -3.528000000     0.334000000     4.411000000
H    -2.807000000     0.931000000     4.212000000
H    -3.510000000     0.247000000     5.364000000
O    -4.357000000     5.668000000     3.710000000
H    -4.753000000     4.803000000     3.815000000
H    -5.050000000     6.280000000     3.960000000
O     1.330000000    -3.334000000    -4.607000000
H     1.479000000    -2.441000000    -4.299000000
H     1.924000000    -3.871000000    -4.083000000
O    -0.179000000    -2.391000000     4.131000000
H     0.250000000    -2.794000000     3.376000000
H     0.484000000    -1.809000000     4.501000000
O    -0.516000000     5.440000000     1.070000000
H    -0.851000000     6.275000000     1.395000000
H    -0.718000000     5.447000000     0.135000000
O    -1.476000000     2.576000000    -4.383000000
H    -1.001000000     2.300000000    -5.167000000
H    -2.223000000     3.073000000    -4.718000000
O    -3.981000000     2.327000000    -2.616000000
H    -3.688000000     3.171000000    -2.962000000
H    -4.347000000     2.535000000    -1.756000000
O    -2.616000000     3.071000000     2.210000000
H    -2.822000000     2.569000000     2.998000000
H    -1.705000000     3.341000000     2.330000000
O     0.191000000     3.714000000     3.328000000
H    -0.104000000     4.131000000     2.519000000
H     0.738000000     4.375000000     3.752000000
O     0.918000000     3.620000000    -3.445000000
H     1.633000000     3.085000000    -3.101000000
H     0.230000000     2.991000000    -3.660000000
O    -0.419000000    -0.131000000     7.174000000
H    -1.062000000    -0.637000000     6.677000000
H    -0.843000000     0.714000000     7.323000000
O     5.234000000     0.051000000     1.284000000
H     5.219000000     0.692000000     0.574000000
H     5.400000000    -0.785000000     0.848000000
O     3.859000000     0.978000000     3.311000000
H     3.244000000     0.372000000     3.723000000
H     4.246000000     0.476000000     2.594000000
O    -4.410000000     2.350000000     0.169000000
H    -5.146000000     2.202000000     0.763000000
H    -3.645000000     2.403000000     0.743000000
O     3.955000000    -0.908000000    -4.787000000
H     3.155000000    -0.936000000    -4.262000000
H     4.658000000    -0.799000000    -4.146000000
O     1.453000000    -4.206000000    -7.473000000
H     1.168000000    -4.197000000    -6.559000000
H     1.658000000    -3.291000000    -7.669000000
O    -2.819000000    -1.843000000     3.096000000
H    -1.930000000    -1.975000000     3.426000000
H    -3.098000000    -1.014000000     3.485000000
O     2.990000000     2.606000000    -1.936000000
H     3.693000000     2.080000000    -1.556000000
H     2.398000000     2.780000000    -1.205000000
O    -7.271000000     2.405000000     2.209000000
H    -7.742000000     2.031000000     2.954000000
H    -6.416000000     2.647000000     2.563000000
O     0.127000000    -4.961000000     5.227000000
H    -0.165000000    -4.084000000     4.977000000
H     0.021000000    -5.485000000     4.433000000
O     4.978000000    -2.409000000    -0.909000000
H     5.629000000    -2.432000000    -1.610000000
H     4.179000000    -2.099000000    -1.334000000
O    -3.222000000    -1.155000000     0.209000000
H    -2.277000000    -1.237000000     0.081000000
H    -3.349000000    -1.299000000     1.147000000
O     1.992000000    -4.230000000    -1.789000000
H     2.199000000    -3.313000000    -1.970000000
H     2.781000000    -4.575000000    -1.372000000
O    -1.036000000    -4.803000000    -4.792000000
H    -0.585000000    -4.034000000    -4.444000000
H    -1.065000000    -4.656000000    -5.738000000
O     5.730000000    -3.393000000     1.610000000
H     5.473000000    -2.978000000     0.786000000
H     5.004000000    -3.208000000     2.206000000
O     7.118000000    -1.057000000    -3.099000000
H     7.449000000    -1.838000000    -3.542000000
H     7.593000000    -0.332000000    -3.505000000
O    -4.706000000    -2.633000000     4.762000000
H    -4.113000000    -2.950000000     5.443000000
H    -4.191000000    -2.678000000     3.956000000
