158
-2992.99922
C     1.396000000    -0.339000000     0.501000000
H     2.400000000    -0.513000000     0.878000000
C     0.370000000     0.268000000     1.195000000
H     0.627000000     0.757000000     2.131000000
C    -0.947000000     0.415000000     0.732000000
H    -1.774000000     0.817000000     1.290000000
C    -1.200000000    -0.052000000    -0.536000000
H    -2.200000000    -0.017000000    -0.961000000
C    -0.189000000    -0.566000000    -1.299000000
H    -0.453000000    -1.084000000    -2.217000000
C     1.125000000    -0.711000000    -0.804000000
C     2.216000000    -1.269000000    -1.703000000
O     2.075000000    -1.353000000    -2.917000000
O     3.202000000    -1.803000000    -1.111000000
O    -6.560000000    -0.548000000    -1.837000000
H    -6.514000000    -1.492000000    -1.990000000
H    -6.039000000    -0.409000000    -1.046000000
O     3.871000000    -2.446000000     4.638000000
H     3.590000000    -3.128000000     5.249000000
H     3.303000000    -1.701000000     4.834000000
O     0.642000000     5.211000000     3.130000000
H     0.614000000     5.277000000     4.084000000
H     0.649000000     4.270000000     2.954000000
O     2.126000000    -4.228000000    -3.566000000
H     2.382000000    -3.421000000    -3.119000000
H     1.169000000    -4.220000000    -3.544000000
O    -7.365000000     0.877000000     2.865000000
H    -7.028000000     1.772000000     2.831000000
H    -8.096000000     0.873000000     2.247000000
O    -1.589000000     6.539000000     2.360000000
H    -1.396000000     7.475000000     2.305000000
H    -0.805000000     6.113000000     2.012000000
O     0.443000000     1.988000000     6.126000000
H     1.114000000     1.346000000     5.893000000
H     0.094000000     1.678000000     6.961000000
O     2.480000000    -2.353000000    -6.320000000
H     1.705000000    -2.348000000    -5.758000000
H     2.852000000    -1.476000000    -6.224000000
O     4.821000000    -3.923000000    -2.250000000
H     4.757000000    -3.038000000    -1.889000000
H     4.014000000    -4.354000000    -1.970000000
O    -0.437000000    -3.996000000    -3.045000000
H    -1.224000000    -4.017000000    -3.591000000
H    -0.765000000    -3.851000000    -2.158000000
O    -3.665000000    -3.577000000    -3.993000000
H    -4.524000000    -3.158000000    -3.946000000
H    -3.474000000    -3.834000000    -3.091000000
O     3.603000000    -0.287000000    -4.854000000
H     4.523000000    -0.545000000    -4.808000000
H     3.204000000    -0.681000000    -4.079000000
O     5.081000000    -0.885000000     2.103000000
H     4.873000000     0.017000000     1.863000000
H     5.329000000    -0.836000000     3.027000000
O     5.991000000    -1.576000000    -4.285000000
H     6.821000000    -1.189000000    -4.007000000
H     6.164000000    -2.518000000    -4.315000000
O     6.869000000    -3.702000000     0.044000000
H     5.935000000    -3.788000000     0.234000000
H     7.032000000    -2.759000000     0.059000000
O    -0.799000000    -3.851000000    -0.382000000
H    -0.487000000    -4.653000000     0.038000000
H    -0.612000000    -3.160000000     0.252000000
O     1.024000000    -4.803000000     2.365000000
H     1.866000000    -4.391000000     2.172000000
H     1.108000000    -5.692000000     2.022000000
O    -3.624000000     3.678000000     2.115000000
H    -4.439000000     3.715000000     1.615000000
H    -3.644000000     2.822000000     2.543000000
O    -4.503000000     6.132000000     2.778000000
H    -3.856000000     6.595000000     2.246000000
H    -4.283000000     5.207000000     2.672000000
O    -3.102000000     4.479000000    -3.195000000
H    -2.841000000     3.980000000    -2.421000000
H    -2.923000000     5.390000000    -2.964000000
O     0.274000000    -1.758000000    -4.812000000
H     0.568000000    -1.498000000    -3.939000000
H    -0.117000000    -2.622000000    -4.685000000
O    -3.383000000     1.007000000     3.659000000
H    -3.527000000     0.085000000     3.446000000
H    -3.997000000     1.186000000     4.372000000
O     4.630000000    -3.899000000    -6.586000000
H     4.999000000    -3.494000000    -7.371000000
H     3.803000000    -3.439000000    -6.444000000
O     3.844000000    -5.788000000     0.486000000
H     4.084000000    -4.862000000     0.516000000
H     4.324000000    -6.135000000    -0.266000000
O     0.610000000    -5.175000000    -6.074000000
H     1.272000000    -4.829000000    -5.475000000
H     0.127000000    -5.816000000    -5.554000000
O    -2.320000000     5.702000000     5.159000000
H    -1.868000000     6.076000000     4.403000000
H    -2.072000000     4.778000000     5.153000000
O    -1.725000000     3.097000000    -5.224000000
H    -1.273000000     2.299000000    -4.949000000
H    -2.654000000     2.870000000    -5.188000000
O    -4.417000000     2.262000000    -1.774000000
H    -4.971000000     2.630000000    -1.085000000
H    -3.523000000     2.419000000    -1.470000000
O     2.855000000     0.402000000     4.640000000
H     2.261000000    -0.131000000     5.167000000
H     3.430000000     0.823000000     5.279000000
O    -2.147000000     3.787000000    -0.284000000
H    -1.233000000     3.505000000    -0.306000000
H    -2.316000000     3.980000000     0.638000000
O     3.479000000     2.071000000    -1.129000000
H     4.101000000     2.709000000    -1.479000000
H     3.892000000     1.222000000    -1.285000000
O     0.815000000     1.405000000    -4.265000000
H     0.558000000     0.500000000    -4.440000000
H     1.761000000     1.418000000    -4.408000000
O     7.019000000    -1.144000000     0.185000000
H     7.577000000    -0.399000000    -0.040000000
H     6.624000000    -0.902000000     1.023000000
O    -1.848000000     3.184000000     5.163000000
H    -2.108000000     2.434000000     4.628000000
H    -0.977000000     2.955000000     5.489000000
O    -5.957000000     1.221000000    -3.762000000
H    -6.364000000     0.581000000    -3.177000000
H    -5.198000000     1.541000000    -3.274000000
O     5.044000000     0.158000000    -1.951000000
H     4.375000000    -0.442000000    -1.622000000
H     5.440000000    -0.306000000    -2.689000000
O    -1.295000000    -1.836000000     5.997000000
H    -2.150000000    -1.753000000     5.574000000
H    -0.978000000    -2.699000000     5.728000000
O    -3.271000000    -2.154000000     3.753000000
H    -2.549000000    -2.782000000     3.721000000
H    -3.969000000    -2.565000000     3.243000000
O     0.370000000     2.675000000    -0.891000000
H     1.302000000     2.489000000    -1.007000000
H     0.023000000     1.899000000    -0.451000000
O     1.428000000    -1.278000000     6.296000000
H     1.389000000    -1.897000000     7.025000000
H     0.571000000    -1.350000000     5.875000000
O    -5.907000000    -0.650000000     1.010000000
H    -6.165000000    -0.072000000     1.729000000
H    -5.330000000    -1.295000000     1.418000000
O     4.266000000     1.762000000     1.547000000
H     3.547000000     2.155000000     2.041000000
H     3.925000000     1.673000000     0.657000000
O    -3.492000000    -3.830000000    -1.100000000
H    -2.649000000    -3.911000000    -0.654000000
H    -4.106000000    -3.583000000    -0.409000000
O     4.226000000    -3.182000000     0.972000000
H     3.641000000    -2.885000000     0.275000000
H     4.482000000    -2.381000000     1.427000000
O    -1.965000000     6.813000000    -1.667000000
H    -2.043000000     7.740000000    -1.439000000
H    -1.992000000     6.357000000    -0.826000000
O    -5.958000000     3.634000000     1.022000000
H    -6.705000000     3.967000000     1.521000000
H    -5.991000000     4.112000000     0.194000000
O     4.131000000    -6.215000000    -3.829000000
H     4.200000000    -6.582000000    -2.947000000
H     3.552000000    -5.459000000    -3.728000000
O     2.002000000     2.890000000     3.429000000
H     2.146000000     1.947000000     3.496000000
H     2.357000000     3.245000000     4.244000000
