158
-3030.79580
C     1.375000000     0.547000000    -0.120000000
H     2.453000000     0.678000000    -0.059000000
C     0.683000000     0.364000000     1.067000000
H     1.181000000     0.516000000     2.021000000
C    -0.640000000    -0.029000000     1.017000000
H    -1.145000000    -0.134000000     1.957000000
C    -1.234000000    -0.210000000    -0.166000000
H    -2.269000000    -0.533000000    -0.091000000
C    -0.541000000    -0.074000000    -1.400000000
H    -1.144000000    -0.163000000    -2.299000000
C     0.770000000     0.289000000    -1.359000000
C     1.616000000     0.054000000    -2.582000000
O     1.206000000    -0.507000000    -3.584000000
O     2.851000000     0.024000000    -2.466000000
O     2.942000000     1.586000000    -4.916000000
H     2.509000000     1.886000000    -4.117000000
H     3.106000000     0.656000000    -4.765000000
O    -5.240000000     0.203000000    -2.729000000
H    -4.780000000    -0.629000000    -2.613000000
H    -5.316000000     0.560000000    -1.844000000
O     2.861000000    -1.279000000     6.041000000
H     2.251000000    -1.788000000     6.575000000
H     2.810000000    -1.679000000     5.172000000
O    -5.877000000     0.812000000     4.659000000
H    -6.695000000     0.440000000     4.988000000
H    -5.502000000     0.122000000     4.113000000
O     0.146000000    -3.062000000    -3.150000000
H     0.432000000    -2.162000000    -3.307000000
H    -0.379000000    -3.284000000    -3.919000000
O    -1.649000000    -1.999000000    -7.593000000
H    -0.927000000    -1.704000000    -7.039000000
H    -1.474000000    -1.601000000    -8.446000000
O     1.857000000     2.620000000    -6.958000000
H     2.157000000     2.209000000    -6.148000000
H     1.986000000     1.949000000    -7.629000000
O     3.249000000    -1.750000000    -4.915000000
H     4.083000000    -1.514000000    -4.509000000
H     2.586000000    -1.365000000    -4.342000000
O     3.200000000    -3.997000000    -6.448000000
H     3.325000000    -3.182000000    -5.962000000
H     2.349000000    -3.894000000    -6.874000000
O    -3.506000000    -3.563000000    -1.580000000
H    -4.222000000    -3.088000000    -1.155000000
H    -2.726000000    -3.311000000    -1.086000000
O     1.920000000    -0.624000000    -7.367000000
H     2.247000000    -1.519000000    -7.273000000
H     1.382000000    -0.483000000    -6.588000000
O    -3.084000000    -3.070000000     2.607000000
H    -2.518000000    -3.091000000     1.836000000
H    -3.334000000    -3.983000000     2.746000000
O     4.399000000     0.381000000     3.170000000
H     4.674000000     1.185000000     2.730000000
H     3.679000000     0.653000000     3.739000000
O     5.838000000    -1.884000000    -4.210000000
H     6.132000000    -1.064000000    -4.607000000
H     6.092000000    -2.559000000    -4.840000000
O    -1.259000000    -3.138000000     0.462000000
H    -0.668000000    -3.777000000     0.063000000
H    -0.874000000    -2.289000000     0.246000000
O     0.175000000    -3.902000000     3.037000000
H    -0.229000000    -3.653000000     2.205000000
H    -0.533000000    -4.313000000     3.533000000
O    -4.049000000     3.917000000     2.322000000
H    -4.647000000     4.275000000     1.666000000
H    -4.356000000     3.021000000     2.463000000
O    -0.458000000    -0.634000000    -5.462000000
H     0.166000000    -0.606000000    -4.737000000
H    -1.218000000    -1.095000000    -5.106000000
O    -4.372000000     1.160000000     1.985000000
H    -4.688000000     0.275000000     2.170000000
H    -3.489000000     1.180000000     2.353000000
O     0.750000000     4.634000000    -4.265000000
H     1.335000000     4.357000000    -3.559000000
H     0.116000000     3.921000000    -4.344000000
O     5.813000000     2.867000000    -4.370000000
H     4.889000000     2.647000000    -4.489000000
H     5.897000000     3.049000000    -3.434000000
O     2.550000000    -2.566000000     3.679000000
H     1.725000000    -2.917000000     3.344000000
H     3.204000000    -2.834000000     3.033000000
O    -3.492000000    -1.814000000    -5.571000000
H    -4.328000000    -1.479000000    -5.897000000
H    -2.908000000    -1.779000000    -6.328000000
O    -1.511000000     2.875000000    -3.917000000
H    -1.539000000     2.742000000    -4.864000000
H    -2.411000000     2.726000000    -3.626000000
O     1.144000000     4.332000000     3.506000000
H     0.241000000     4.065000000     3.681000000
H     1.601000000     3.514000000     3.308000000
O    -4.922000000     1.850000000    -0.560000000
H    -4.574000000     1.698000000     0.318000000
H    -5.354000000     2.703000000    -0.503000000
O     1.943000000     1.737000000     4.290000000
H     1.609000000     1.075000000     4.896000000
H     2.213000000     2.463000000     4.853000000
O    -3.717000000     1.739000000     6.574000000
H    -4.503000000     1.656000000     7.114000000
H    -3.715000000     2.654000000     6.293000000
O     2.477000000     3.177000000    -2.453000000
H     2.794000000     4.076000000    -2.363000000
H     3.200000000     2.635000000    -2.138000000
O    -1.832000000     1.643000000    -6.469000000
H    -2.478000000     1.175000000    -6.998000000
H    -1.305000000     0.952000000    -6.067000000
O    -2.375000000     1.235000000     3.975000000
H    -1.561000000     1.019000000     4.430000000
H    -3.032000000     1.288000000     4.669000000
O     5.458000000     2.696000000     2.423000000
H     5.756000000     3.325000000     3.080000000
H     5.028000000     3.232000000     1.756000000
O    -1.858000000    -4.492000000     4.828000000
H    -2.616000000    -3.972000000     5.096000000
H    -2.156000000    -5.400000000     4.891000000
O    -4.242000000     2.549000000    -3.746000000
H    -4.614000000     1.731000000    -3.415000000
H    -4.790000000     2.774000000    -4.498000000
O     4.657000000     1.503000000    -1.534000000
H     4.041000000     0.822000000    -1.803000000
H     5.479000000     1.037000000    -1.383000000
O    -0.554000000    -1.609000000     5.106000000
H    -0.396000000    -1.776000000     4.177000000
H    -0.759000000    -2.470000000     5.472000000
O    -5.254000000    -1.197000000     3.057000000
H    -4.456000000    -1.706000000     2.914000000
H    -5.964000000    -1.830000000     2.949000000
O    -0.525000000     3.047000000    -0.307000000
H    -1.072000000     2.876000000    -1.073000000
H    -0.562000000     2.236000000     0.200000000
O    -0.526000000     0.904000000     6.546000000
H    -0.345000000     0.665000000     7.455000000
H    -0.711000000     0.071000000     6.112000000
O     7.258000000    -2.776000000    -1.921000000
H     6.524000000    -2.449000000    -2.440000000
H     8.030000000    -2.368000000    -2.314000000
O     4.373000000     3.672000000     0.201000000
H     3.716000000     4.202000000    -0.249000000
H     4.405000000     2.855000000    -0.298000000
O     1.446000000     4.892000000     0.255000000
H     1.413000000     4.737000000     1.199000000
H     0.765000000     4.324000000    -0.105000000
O    -5.393000000    -2.171000000    -0.149000000
H    -5.461000000    -2.928000000     0.433000000
H    -6.238000000    -1.729000000    -0.067000000
O     0.606000000    -4.497000000    -0.787000000
H     0.643000000    -4.101000000    -1.658000000
H     0.253000000    -5.374000000    -0.937000000
O     3.576000000    -1.858000000    -0.674000000
H     3.267000000    -1.211000000    -1.309000000
H     4.335000000    -1.445000000    -0.262000000
O     3.572000000    -3.926000000    -2.715000000
H     3.480000000    -3.608000000    -3.614000000
H     3.549000000    -3.135000000    -2.178000000
O     5.624000000    -1.118000000     1.179000000
H     5.313000000    -0.752000000     2.007000000
H     5.558000000    -2.065000000     1.296000000
O    -1.337000000     4.002000000     4.079000000
H    -1.970000000     4.153000000     3.376000000
H    -1.790000000     3.417000000     4.686000000
