158
-3019.42797
C     1.431000000     0.379000000    -0.094000000
H     2.479000000     0.656000000    -0.015000000
C     0.651000000     0.336000000     1.056000000
H     1.042000000     0.763000000     1.976000000
C    -0.721000000     0.124000000     0.973000000
H    -1.290000000     0.218000000     1.905000000
C    -1.291000000    -0.339000000    -0.187000000
H    -2.341000000    -0.583000000    -0.333000000
C    -0.409000000    -0.533000000    -1.353000000
H    -0.803000000    -0.854000000    -2.314000000
C     0.875000000    -0.039000000    -1.317000000
C     1.682000000    -0.221000000    -2.506000000
O     1.240000000    -0.812000000    -3.542000000
O     2.902000000    -0.020000000    -2.473000000
O     2.945000000     2.540000000    -3.104000000
H     2.858000000     3.118000000    -2.346000000
H     2.844000000     1.658000000    -2.746000000
O    -5.967000000     0.921000000    -1.499000000
H    -6.651000000     1.382000000    -1.013000000
H    -5.152000000     1.334000000    -1.215000000
O     4.052000000    -0.997000000     6.170000000
H     3.609000000    -1.768000000     6.524000000
H     3.473000000    -0.688000000     5.473000000
O    -4.793000000     0.560000000     5.622000000
H    -5.665000000     0.172000000     5.700000000
H    -4.442000000     0.198000000     4.809000000
O     0.312000000    -3.481000000    -3.287000000
H     0.843000000    -2.732000000    -3.556000000
H    -0.564000000    -3.286000000    -3.620000000
O    -3.130000000    -5.494000000     0.722000000
H    -2.519000000    -6.136000000     0.360000000
H    -3.183000000    -4.811000000     0.054000000
O     1.838000000     2.008000000    -6.041000000
H     2.384000000     2.178000000    -5.273000000
H     1.276000000     1.279000000    -5.779000000
O     3.202000000    -1.667000000    -5.226000000
H     3.985000000    -1.269000000    -4.845000000
H     2.473000000    -1.210000000    -4.807000000
O    -2.338000000    -3.628000000    -4.303000000
H    -2.495000000    -2.710000000    -4.522000000
H    -2.779000000    -4.119000000    -4.997000000
O     3.164000000    -2.091000000    -8.040000000
H     3.451000000    -2.182000000    -7.131000000
H     2.263000000    -1.775000000    -7.976000000
O    -2.790000000    -3.661000000    -1.306000000
H    -2.343000000    -3.096000000    -1.936000000
H    -3.489000000    -3.115000000    -0.947000000
O     0.601000000    -1.168000000    -7.742000000
H     0.455000000    -0.341000000    -8.200000000
H     0.008000000    -1.787000000    -8.169000000
O    -3.026000000    -3.151000000     2.870000000
H    -2.912000000    -3.693000000     3.651000000
H    -2.761000000    -3.717000000     2.145000000
O     3.662000000     1.156000000     3.897000000
H     3.249000000     2.014000000     4.001000000
H     2.929000000     0.546000000     3.817000000
O     5.671000000    -0.020000000    -6.095000000
H     6.531000000    -0.204000000    -5.717000000
H     5.347000000     0.731000000    -5.598000000
O     0.964000000    -2.930000000     2.500000000
H     1.329000000    -3.453000000     1.786000000
H     0.557000000    -2.181000000     2.065000000
O     0.512000000    -4.207000000     4.979000000
H     0.691000000    -3.776000000     4.143000000
H    -0.403000000    -4.481000000     4.915000000
O    -2.620000000     4.716000000     2.412000000
H    -3.309000000     5.377000000     2.476000000
H    -3.082000000     3.881000000     2.481000000
O    -0.770000000     0.385000000    -5.124000000
H    -0.018000000     0.089000000    -4.611000000
H    -1.264000000    -0.414000000    -5.308000000
O    -3.877000000     1.695000000     2.619000000
H    -4.331000000     0.853000000     2.655000000
H    -3.287000000     1.681000000     3.373000000
O     1.280000000     4.769000000    -3.725000000
H     1.497000000     4.106000000    -3.071000000
H     0.561000000     4.384000000    -4.227000000
O     5.442000000     1.887000000    -4.028000000
H     4.662000000     2.384000000    -3.782000000
H     5.738000000     1.484000000    -3.212000000
O     1.861000000    -1.044000000     4.283000000
H     1.809000000    -1.818000000     3.722000000
H     0.953000000    -0.865000000     4.527000000
O    -3.167000000    -1.358000000    -5.059000000
H    -3.949000000    -1.303000000    -4.511000000
H    -3.502000000    -1.343000000    -5.956000000
O    -1.026000000     2.441000000    -2.769000000
H    -1.120000000     3.064000000    -3.489000000
H    -1.456000000     1.646000000    -3.083000000
O     2.185000000     3.437000000     3.718000000
H     2.143000000     3.585000000     4.663000000
H     1.285000000     3.560000000     3.416000000
O    -3.697000000     1.804000000    -0.140000000
H    -3.802000000     1.673000000     0.803000000
H    -2.766000000     1.995000000    -0.254000000
O    -0.152000000     3.268000000     2.532000000
H    -0.730000000     2.553000000     2.798000000
H    -0.270000000     3.331000000     1.584000000
O     3.003000000     4.107000000    -0.975000000
H     2.871000000     5.043000000    -0.826000000
H     3.357000000     3.780000000    -0.148000000
O    -3.720000000    -1.990000000     6.271000000
H    -3.804000000    -1.039000000     6.347000000
H    -3.954000000    -2.321000000     7.139000000
O    -2.049000000     2.088000000    -6.634000000
H    -2.971000000     2.029000000    -6.381000000
H    -1.634000000     1.344000000    -6.199000000
O    -1.485000000     1.307000000     4.271000000
H    -0.969000000     1.967000000     4.734000000
H    -1.240000000     0.479000000     4.685000000
O    -5.030000000    -1.374000000    -3.064000000
H    -5.142000000    -1.364000000    -2.113000000
H    -5.317000000    -0.506000000    -3.348000000
O    -4.290000000     2.693000000    -3.384000000
H    -3.653000000     2.588000000    -2.676000000
H    -4.550000000     3.613000000    -3.337000000
O     5.520000000     0.369000000    -1.770000000
H     4.634000000     0.260000000    -2.116000000
H     5.675000000    -0.423000000    -1.255000000
O    -0.741000000    -1.028000000     5.414000000
H    -0.565000000    -1.081000000     6.354000000
H    -1.489000000    -1.610000000     5.278000000
O     5.775000000    -0.646000000     3.821000000
H     5.350000000    -1.504000000     3.841000000
H     5.053000000    -0.020000000     3.865000000
O    -4.453000000    -0.864000000     3.306000000
H    -3.844000000    -1.602000000     3.285000000
H    -5.250000000    -1.200000000     2.897000000
O    -0.401000000     3.620000000    -0.344000000
H    -0.592000000     3.213000000    -1.189000000
H     0.500000000     3.361000000    -0.152000000
O    -0.981000000     2.352000000     6.864000000
H    -0.451000000     2.112000000     7.624000000
H    -1.846000000     1.984000000     7.049000000
O     6.598000000     2.916000000    -0.252000000
H     7.477000000     2.999000000    -0.621000000
H     6.274000000     2.081000000    -0.591000000
O     3.630000000     3.351000000     1.549000000
H     3.045000000     3.445000000     2.301000000
H     4.477000000     3.122000000     1.931000000
O    -4.296000000    -1.919000000    -0.143000000
H    -4.866000000    -2.620000000     0.173000000
H    -4.474000000    -1.184000000     0.444000000
O     1.196000000    -3.553000000    -0.552000000
H     1.264000000    -2.612000000    -0.392000000
H     0.906000000    -3.622000000    -1.461000000
O     3.882000000    -2.793000000    -2.642000000
H     3.318000000    -2.025000000    -2.730000000
H     3.583000000    -3.219000000    -1.839000000
O     3.811000000    -2.327000000     0.841000000
H     3.232000000    -3.083000000     0.747000000
H     4.257000000    -2.469000000     1.676000000
O     5.714000000    -4.288000000    -4.043000000
H     6.217000000    -4.205000000    -3.232000000
H     5.055000000    -3.597000000    -3.988000000
O     0.692000000    -5.924000000    -4.566000000
H     0.534000000    -5.160000000    -4.013000000
H    -0.129000000    -6.050000000    -5.041000000
