158
-3035.31836
C    -1.073000000    -0.496000000    -0.898000000
H    -1.746000000    -0.888000000    -1.657000000
C     0.155000000    -0.036000000    -1.332000000
H     0.426000000    -0.111000000    -2.383000000
C     1.081000000     0.478000000    -0.353000000
H     2.052000000     0.721000000    -0.764000000
C     0.685000000     0.502000000     0.931000000
H     1.396000000     0.945000000     1.623000000
C    -0.464000000    -0.073000000     1.291000000
H    -0.727000000    -0.054000000     2.346000000
C    -1.390000000    -0.555000000     0.421000000
C    -2.756000000    -1.175000000     0.905000000
O    -3.240000000    -0.936000000     1.962000000
O    -3.357000000    -1.938000000     0.163000000
O     2.940000000     5.843000000    -1.849000000
H     1.986000000     5.824000000    -1.922000000
H     3.148000000     5.128000000    -1.247000000
O    -4.178000000    -2.488000000     3.726000000
H    -3.817000000    -1.960000000     3.014000000
H    -3.516000000    -3.162000000     3.884000000
O     2.066000000    -2.671000000     0.811000000
H     1.408000000    -2.040000000     0.519000000
H     2.746000000    -2.135000000     1.220000000
O    -6.544000000    -3.705000000    -0.802000000
H    -6.344000000    -3.143000000    -0.053000000
H    -7.485000000    -3.598000000    -0.938000000
O     0.201000000     3.446000000     0.471000000
H    -0.561000000     3.364000000    -0.103000000
H     0.899000000     2.979000000     0.010000000
O     6.531000000    -1.636000000    -3.608000000
H     5.736000000    -1.962000000    -4.029000000
H     7.182000000    -2.319000000    -3.763000000
O     2.642000000     2.214000000     4.755000000
H     2.646000000     2.989000000     4.193000000
H     1.740000000     1.895000000     4.717000000
O    -0.075000000     2.928000000    -5.455000000
H    -0.293000000     3.736000000    -5.918000000
H     0.851000000     2.782000000    -5.651000000
O    -2.915000000    -4.238000000     1.280000000
H    -3.638000000    -4.852000000     1.152000000
H    -3.196000000    -3.440000000     0.833000000
O     4.697000000     0.397000000     4.556000000
H     5.230000000     0.747000000     3.842000000
H     3.936000000     0.977000000     4.593000000
O    -2.665000000     0.779000000     3.998000000
H    -2.963000000     0.200000000     3.297000000
H    -2.506000000     0.195000000     4.740000000
O     2.077000000    -4.467000000    -1.402000000
H     1.790000000    -3.881000000    -0.702000000
H     1.832000000    -5.341000000    -1.099000000
O    -1.925000000    -3.366000000     5.849000000
H    -1.333000000    -3.612000000     5.138000000
H    -2.524000000    -4.108000000     5.928000000
O    -1.696000000    -3.639000000    -6.392000000
H    -2.634000000    -3.776000000    -6.261000000
H    -1.430000000    -3.084000000    -5.660000000
O    -2.623000000    -0.482000000    -4.735000000
H    -2.298000000    -0.023000000    -5.510000000
H    -3.571000000    -0.521000000    -4.861000000
O     0.572000000     4.816000000     3.012000000
H     0.545000000     4.024000000     2.474000000
H     1.188000000     5.392000000     2.560000000
O     3.220000000     3.221000000    -0.239000000
H     3.292000000     3.029000000    -1.174000000
H     3.596000000     2.453000000     0.193000000
O    -0.627000000     1.949000000     5.151000000
H    -1.465000000     1.876000000     4.694000000
H    -0.288000000     1.054000000     5.174000000
O    -5.142000000     1.031000000    -2.636000000
H    -4.839000000     1.883000000    -2.320000000
H    -4.756000000     0.948000000    -3.507000000
O     3.671000000    -1.475000000     2.508000000
H     3.082000000    -1.560000000     3.259000000
H     4.513000000    -1.800000000     2.827000000
O    -6.650000000     0.404000000     3.189000000
H    -7.462000000     0.891000000     3.328000000
H    -6.329000000     0.216000000     4.071000000
O    -1.216000000    -2.407000000    -3.630000000
H    -1.758000000    -1.710000000    -3.999000000
H    -1.778000000    -2.830000000    -2.981000000
O     6.266000000     0.922000000    -2.251000000
H     6.347000000     0.088000000    -2.713000000
H     5.337000000     1.142000000    -2.314000000
O     0.970000000    -0.419000000     5.888000000
H     1.074000000    -1.079000000     5.203000000
H     0.441000000    -0.850000000     6.558000000
O     3.752000000    -2.333000000    -4.656000000
H     2.964000000    -2.865000000    -4.541000000
H     3.860000000    -2.268000000    -5.604000000
O     3.452000000     1.895000000    -2.784000000
H     3.480000000     1.413000000    -3.611000000
H     2.563000000     2.247000000    -2.742000000
O    -2.363000000    -3.667000000    -1.490000000
H    -2.802000000    -2.925000000    -1.073000000
H    -1.520000000    -3.729000000    -1.041000000
O    -2.149000000    -0.790000000     5.994000000
H    -2.082000000    -1.701000000     5.707000000
H    -2.863000000    -0.791000000     6.632000000
O     2.210000000     1.723000000    -6.392000000
H     2.572000000     1.187000000    -5.687000000
H     2.971000000     2.153000000    -6.782000000
O     5.611000000    -2.336000000    -0.319000000
H     5.687000000    -2.224000000    -1.267000000
H     6.105000000    -1.603000000     0.049000000
O    -4.015000000     3.341000000     4.126000000
H    -3.496000000     2.538000000     4.164000000
H    -4.399000000     3.337000000     3.249000000
O     4.190000000     0.849000000     0.977000000
H     3.794000000     0.197000000     1.556000000
H     5.127000000     0.653000000     1.002000000
O    -3.138000000    -5.911000000    -2.536000000
H    -2.822000000    -5.039000000    -2.299000000
H    -3.671000000    -6.184000000    -1.790000000
O     7.058000000     0.072000000     0.365000000
H     7.957000000     0.398000000     0.334000000
H     6.676000000     0.339000000    -0.471000000
O    -5.915000000    -1.199000000     0.641000000
H    -4.983000000    -1.107000000     0.441000000
H    -6.013000000    -0.814000000     1.511000000
O    -1.962000000     2.868000000    -1.602000000
H    -2.809000000     3.314000000    -1.578000000
H    -2.173000000     1.965000000    -1.841000000
O    -1.006000000    -4.198000000     3.230000000
H    -1.417000000    -4.457000000     2.405000000
H    -0.541000000    -4.982000000     3.522000000
O     1.026000000     3.136000000    -2.689000000
H     0.217000000     2.886000000    -3.136000000
H     0.950000000     4.082000000    -2.568000000
O    -5.700000000    -1.523000000    -2.579000000
H    -5.298000000    -1.802000000    -1.756000000
H    -5.562000000    -0.576000000    -2.603000000
O     3.692000000     3.786000000     2.498000000
H     3.699000000     3.782000000     1.541000000
H     4.353000000     3.140000000     2.746000000
O     1.333000000    -3.690000000    -3.870000000
H     1.433000000    -3.868000000    -2.935000000
H     0.536000000    -3.163000000    -3.930000000
O     0.849000000    -2.170000000     3.375000000
H     0.059000000    -2.531000000     3.777000000
H     1.059000000    -2.782000000     2.669000000
O    -4.744000000     1.304000000     1.711000000
H    -4.090000000     0.606000000     1.681000000
H    -5.436000000     0.960000000     2.275000000
O    -7.101000000     1.723000000     0.112000000
H    -6.211000000     1.545000000     0.418000000
H    -7.386000000     0.900000000    -0.286000000
O    -8.209000000    -0.613000000    -0.591000000
H    -8.750000000    -1.312000000    -0.959000000
H    -7.430000000    -1.062000000    -0.261000000
O    -5.248000000    -6.275000000    -0.492000000
H    -5.975000000    -6.685000000    -0.962000000
H    -5.407000000    -5.335000000    -0.580000000
O    -6.095000000    -3.093000000     5.847000000
H    -5.470000000    -2.870000000     5.157000000
H    -6.521000000    -3.891000000     5.536000000
O     3.907000000     0.326000000    -5.058000000
H     3.802000000    -0.486000000    -4.563000000
H     4.529000000     0.105000000    -5.751000000
