158
-3005.44068
C     1.316000000     0.567000000    -0.456000000
H     2.309000000     0.984000000    -0.600000000
C     0.808000000     0.454000000     0.825000000
H     1.355000000     0.875000000     1.665000000
C    -0.385000000    -0.071000000     1.118000000
H    -0.597000000    -0.123000000     2.209000000
C    -1.217000000    -0.556000000     0.081000000
H    -2.185000000    -0.936000000     0.399000000
C    -0.723000000    -0.458000000    -1.181000000
H    -1.360000000    -0.874000000    -1.957000000
C     0.516000000     0.108000000    -1.517000000
C     1.069000000     0.091000000    -2.866000000
O     0.499000000    -0.551000000    -3.738000000
O     2.175000000     0.569000000    -3.124000000
O     3.553000000    -1.514000000    -6.436000000
H     3.651000000    -0.783000000    -5.826000000
H     2.877000000    -1.224000000    -7.049000000
O    -2.547000000    -1.924000000     3.036000000
H    -1.835000000    -2.234000000     2.475000000
H    -2.180000000    -1.941000000     3.920000000
O    -4.971000000    -2.688000000    -4.838000000
H    -4.853000000    -2.544000000    -3.899000000
H    -4.169000000    -2.348000000    -5.235000000
O    -3.278000000     3.137000000     5.792000000
H    -3.857000000     2.396000000     5.971000000
H    -3.747000000     3.656000000     5.138000000
O    -4.816000000     1.972000000     2.872000000
H    -4.422000000     1.107000000     2.980000000
H    -5.731000000     1.852000000     3.126000000
O    -1.948000000    -0.091000000     7.905000000
H    -2.737000000     0.421000000     7.726000000
H    -1.941000000    -0.764000000     7.224000000
O    -1.690000000     0.462000000    -4.910000000
H    -0.753000000     0.275000000    -4.845000000
H    -1.961000000     0.642000000    -4.009000000
O     4.127000000     4.010000000    -4.899000000
H     4.706000000     3.987000000    -5.661000000
H     4.015000000     4.941000000    -4.710000000
O    -2.727000000     1.862000000     0.324000000
H    -2.430000000     2.524000000     0.949000000
H    -2.073000000     1.165000000     0.385000000
O    -0.114000000    -3.198000000    -4.390000000
H     0.690000000    -3.703000000    -4.270000000
H     0.139000000    -2.295000000    -4.200000000
O     0.714000000     4.789000000    -3.120000000
H     1.351000000     4.142000000    -2.817000000
H    -0.128000000     4.337000000    -3.071000000
O     3.655000000     1.223000000    -5.083000000
H     2.908000000     0.941000000    -4.554000000
H     3.754000000     2.153000000    -4.881000000
O    -1.633000000     1.560000000     4.224000000
H    -0.893000000     1.079000000     4.596000000
H    -2.190000000     1.762000000     4.976000000
O    -4.334000000     4.442000000     2.057000000
H    -4.462000000     4.958000000     2.853000000
H    -4.156000000     3.556000000     2.372000000
O    -1.464000000    -5.620000000    -3.828000000
H    -2.166000000    -5.558000000    -3.180000000
H    -1.037000000    -4.764000000    -3.802000000
O     3.893000000    -3.845000000    -2.100000000
H     3.774000000    -2.936000000    -1.823000000
H     4.546000000    -4.196000000    -1.494000000
O    -4.492000000    -2.455000000     1.320000000
H    -5.108000000    -2.794000000     1.968000000
H    -3.789000000    -2.064000000     1.839000000
O     2.141000000     4.141000000     3.941000000
H     2.221000000     3.529000000     4.673000000
H     1.269000000     4.524000000     4.044000000
O     3.349000000     3.001000000     0.666000000
H     3.127000000     3.036000000    -0.264000000
H     2.907000000     3.760000000     1.047000000
O     0.373000000     2.993000000     7.411000000
H     0.939000000     3.625000000     6.969000000
H     0.430000000     2.203000000     6.874000000
O    -4.527000000    -2.470000000    -1.489000000
H    -4.435000000    -2.468000000    -0.537000000
H    -5.379000000    -2.062000000    -1.648000000
O    -0.539000000     3.660000000    -0.159000000
H     0.182000000     4.289000000    -0.141000000
H    -0.807000000     3.577000000     0.756000000
O     1.252000000    -2.887000000     0.416000000
H     1.393000000    -2.081000000     0.914000000
H     1.196000000    -2.599000000    -0.495000000
O    -1.471000000     3.568000000     2.440000000
H    -1.023000000     4.156000000     3.048000000
H    -1.514000000     2.732000000     2.903000000
O     3.022000000     1.652000000    -7.897000000
H     3.655000000     2.012000000    -8.519000000
H     3.387000000     1.860000000    -7.037000000
O    -2.527000000    -1.837000000    -6.091000000
H    -2.315000000    -0.984000000    -5.712000000
H    -3.148000000    -1.640000000    -6.791000000
O    -4.406000000     0.583000000     6.348000000
H    -4.626000000    -0.092000000     5.706000000
H    -5.224000000     1.063000000     6.480000000
O    -5.487000000     0.628000000     0.032000000
H    -5.391000000    -0.306000000    -0.154000000
H    -4.624000000     0.900000000     0.343000000
O    -5.357000000    -0.823000000     4.385000000
H    -6.107000000    -1.389000000     4.199000000
H    -4.618000000    -1.258000000     3.959000000
O     3.384000000    -1.418000000    -1.551000000
H     3.183000000    -0.708000000    -2.161000000
H     3.335000000    -1.011000000    -0.686000000
O    -3.426000000     1.454000000    -2.500000000
H    -3.176000000     1.397000000    -1.578000000
H    -4.345000000     1.187000000    -2.516000000
O     0.319000000     0.871000000    -8.236000000
H     0.345000000     0.209000000    -7.545000000
H     1.172000000     1.302000000    -8.187000000
O     2.998000000     1.833000000     5.145000000
H     3.177000000     2.091000000     6.049000000
H     2.413000000     1.078000000     5.223000000
O     5.562000000     3.820000000    -0.676000000
H     6.395000000     3.752000000    -0.210000000
H     4.906000000     3.542000000    -0.035000000
O     0.086000000    -3.488000000     2.792000000
H    -0.076000000    -4.306000000     3.261000000
H     0.436000000    -3.762000000     1.944000000
O     0.294000000     0.329000000     6.663000000
H    -0.498000000     0.407000000     7.195000000
H     0.662000000    -0.521000000     6.904000000
O     3.578000000    -2.391000000     2.898000000
H     4.470000000    -2.543000000     3.211000000
H     3.026000000    -2.535000000     3.666000000
O     6.665000000    -1.918000000     0.271000000
H     5.770000000    -1.581000000     0.245000000
H     6.959000000    -1.891000000    -0.640000000
O     6.299000000     0.236000000    -4.054000000
H     6.296000000     0.380000000    -3.107000000
H     5.438000000     0.536000000    -4.345000000
O     4.101000000    -0.815000000     0.766000000
H     4.427000000     0.047000000     1.025000000
H     3.741000000    -1.187000000     1.571000000
O     0.420000000    -1.108000000    -6.251000000
H    -0.431000000    -1.537000000    -6.162000000
H     0.690000000    -0.925000000    -5.351000000
O    -1.601000000     3.512000000    -2.604000000
H    -1.237000000     3.736000000    -1.747000000
H    -2.111000000     2.717000000    -2.446000000
O    -2.002000000    -2.256000000     5.722000000
H    -1.422000000    -2.980000000     5.954000000
H    -2.882000000    -2.628000000     5.773000000
O     4.452000000     1.673000000     2.770000000
H     3.938000000     2.245000000     2.200000000
H     3.877000000     1.496000000     3.514000000
O    -3.206000000    -5.549000000     2.623000000
H    -2.461000000    -6.103000000     2.857000000
H    -2.813000000    -4.790000000     2.192000000
O    -3.262000000    -4.931000000    -1.586000000
H    -3.846000000    -5.583000000    -1.975000000
H    -3.792000000    -4.136000000    -1.531000000
O    -1.024000000    -4.700000000     0.278000000
H    -1.698000000    -4.665000000    -0.401000000
H    -0.236000000    -4.363000000    -0.149000000
O     2.854000000     3.051000000    -2.199000000
H     3.489000000     3.399000000    -2.824000000
H     2.527000000     2.250000000    -2.610000000
