158
-3057.94171
C     0.885000000     0.912000000    -0.764000000
H     1.639000000     1.515000000    -1.264000000
C     1.242000000     0.252000000     0.422000000
H     2.171000000     0.533000000     0.910000000
C     0.336000000    -0.524000000     1.084000000
H     0.628000000    -1.007000000     2.085000000
C    -0.976000000    -0.747000000     0.558000000
H    -1.722000000    -1.408000000     0.991000000
C    -1.333000000    -0.057000000    -0.588000000
H    -2.342000000    -0.203000000    -0.966000000
C    -0.439000000     0.711000000    -1.310000000
C    -0.865000000     1.430000000    -2.585000000
O    -2.038000000     1.339000000    -2.977000000
O    -0.078000000     2.105000000    -3.241000000
O     1.078000000    -4.884000000     1.096000000
H     0.693000000    -4.106000000     0.693000000
H     0.375000000    -5.533000000     1.084000000
O     3.920000000    -1.385000000    -4.983000000
H     4.424000000    -1.936000000    -4.384000000
H     3.495000000    -0.741000000    -4.416000000
O    -5.766000000    -2.804000000     1.083000000
H    -6.589000000    -3.020000000     0.646000000
H    -5.950000000    -2.925000000     2.015000000
O    -6.008000000     4.471000000    -1.351000000
H    -5.376000000     3.915000000    -1.807000000
H    -5.474000000     5.024000000    -0.781000000
O     0.366000000     4.530000000    -7.109000000
H     0.766000000     3.853000000    -6.562000000
H    -0.575000000     4.377000000    -7.029000000
O    -3.375000000     0.794000000     4.212000000
H    -3.912000000     0.116000000     3.801000000
H    -2.595000000     0.849000000     3.659000000
O    -4.550000000     1.636000000    -2.436000000
H    -3.628000000     1.566000000    -2.680000000
H    -4.913000000     0.769000000    -2.618000000
O     1.868000000     5.771000000    -3.926000000
H     2.453000000     6.204000000    -3.304000000
H     1.650000000     6.451000000    -4.564000000
O    -4.751000000     1.735000000     0.791000000
H    -5.135000000     1.661000000    -0.083000000
H    -4.009000000     2.329000000     0.676000000
O     2.363000000    -1.930000000    -1.408000000
H     3.215000000    -1.648000000    -1.743000000
H     2.137000000    -1.275000000    -0.748000000
O    -0.848000000     4.520000000    -4.008000000
H    -0.773000000     3.610000000    -3.720000000
H     0.056000000     4.802000000    -4.148000000
O     2.377000000     1.221000000    -3.696000000
H     1.476000000     1.452000000    -3.470000000
H     2.548000000     1.694000000    -4.510000000
O    -0.522000000    -1.883000000     7.725000000
H    -0.551000000    -1.014000000     7.327000000
H     0.410000000    -2.095000000     7.771000000
O     1.029000000    -0.077000000     5.277000000
H     0.610000000     0.307000000     6.048000000
H     1.101000000     0.648000000     4.657000000
O     3.360000000    -1.618000000     5.496000000
H     2.753000000    -0.885000000     5.395000000
H     3.193000000    -2.173000000     4.735000000
O    -0.997000000    -3.695000000    -0.135000000
H    -0.886000000    -2.769000000     0.082000000
H    -1.563000000    -4.037000000     0.557000000
O    -4.074000000    -0.851000000     2.105000000
H    -4.694000000    -1.323000000     1.550000000
H    -4.008000000     0.017000000     1.707000000
O    -2.295000000     4.136000000    -6.237000000
H    -1.816000000     4.399000000    -5.451000000
H    -3.150000000     3.851000000    -5.912000000
O     4.560000000    -3.196000000     1.006000000
H     4.506000000    -2.243000000     1.065000000
H     4.152000000    -3.408000000     0.165000000
O     0.946000000     3.529000000     1.876000000
H     1.032000000     3.493000000     0.924000000
H     1.219000000     4.416000000     2.108000000
O    -3.111000000    -2.020000000    -3.088000000
H    -2.260000000    -2.451000000    -3.006000000
H    -3.009000000    -1.428000000    -3.833000000
O     3.066000000    -3.292000000     3.534000000
H     3.449000000    -3.339000000     2.658000000
H     2.131000000    -3.441000000     3.396000000
O    -3.689000000     5.054000000    -3.780000000
H    -3.546000000     5.785000000    -3.179000000
H    -2.914000000     4.503000000    -3.675000000
O    -1.057000000     1.759000000     2.680000000
H    -0.640000000     1.316000000     1.941000000
H    -0.331000000     2.157000000     3.161000000
O     4.796000000    -0.709000000     1.071000000
H     5.039000000    -0.242000000     0.271000000
H     4.924000000    -0.068000000     1.771000000
O     3.829000000     3.686000000     2.010000000
H     4.193000000     3.552000000     2.885000000
H     2.964000000     3.277000000     2.045000000
O     0.759000000     2.104000000    -5.722000000
H     0.619000000     1.217000000    -6.053000000
H     0.385000000     2.093000000    -4.841000000
O    -5.723000000    -0.828000000    -2.846000000
H    -4.927000000    -1.361000000    -2.857000000
H    -6.374000000    -1.379000000    -2.412000000
O     1.270000000    -1.977000000    -4.104000000
H     0.573000000    -2.440000000    -3.638000000
H     1.674000000    -1.421000000    -3.438000000
O     2.748000000    -5.873000000     5.165000000
H     2.709000000    -4.978000000     4.830000000
H     2.414000000    -6.412000000     4.448000000
O     4.257000000     4.251000000    -0.675000000
H     5.115000000     3.850000000    -0.815000000
H     4.061000000     4.082000000     0.247000000
O     4.023000000     0.796000000    -1.733000000
H     3.373000000     0.848000000    -2.434000000
H     4.865000000     0.878000000    -2.181000000
O    -2.464000000    -3.242000000     2.884000000
H    -1.662000000    -2.877000000     3.259000000
H    -3.152000000    -2.634000000     3.152000000
O    -4.885000000     3.423000000    -5.379000000
H    -4.671000000     4.131000000    -4.772000000
H    -5.644000000     2.992000000    -4.986000000
O    -2.258000000    -6.075000000     3.177000000
H    -2.393000000    -5.130000000     3.242000000
H    -1.698000000    -6.185000000     2.408000000
O    -0.151000000    -0.402000000    -6.016000000
H     0.356000000    -0.947000000    -5.414000000
H    -0.142000000    -0.884000000    -6.842000000
O     0.148000000    -2.579000000     3.942000000
H     0.234000000    -1.752000000     4.417000000
H    -0.031000000    -3.229000000     4.621000000
O     4.943000000     0.612000000     3.409000000
H     5.543000000     0.326000000     4.097000000
H     4.715000000     1.511000000     3.647000000
O    -2.821000000     0.817000000    -5.462000000
H    -1.934000000     0.698000000    -5.801000000
H    -2.695000000     1.161000000    -4.578000000
O    -2.448000000     3.287000000     0.546000000
H    -2.111000000     3.121000000     1.426000000
H    -2.108000000     4.153000000     0.318000000
O     1.198000000     2.433000000     4.392000000
H     1.077000000     2.985000000     3.620000000
H     0.920000000     2.982000000     5.125000000
O    -1.077000000     5.540000000    -0.159000000
H    -0.465000000     5.271000000    -0.844000000
H    -0.526000000     5.956000000     0.504000000
O    -4.403000000    -3.812000000    -1.234000000
H    -3.923000000    -3.135000000    -1.710000000
H    -4.698000000    -3.379000000    -0.433000000
O     2.006000000     6.276000000     0.443000000
H     2.057000000     5.752000000    -0.357000000
H     2.087000000     7.181000000     0.141000000
O    -6.813000000     2.439000000    -3.514000000
H    -6.198000000     2.132000000    -2.847000000
H    -7.676000000     2.222000000    -3.161000000
O     2.274000000    -2.469000000     7.768000000
H     2.642000000    -2.121000000     6.956000000
H     2.743000000    -3.292000000     7.910000000
O    -0.744000000    -3.474000000    -2.879000000
H    -0.616000000    -3.830000000    -2.000000000
H    -0.751000000    -4.243000000    -3.450000000
O     1.101000000     4.090000000    -1.243000000
H     2.003000000     4.002000000    -1.551000000
H     0.566000000     3.886000000    -2.010000000
