158
-3039.10245
C    -0.607000000     0.513000000    -1.253000000
H    -0.977000000     0.953000000    -2.176000000
C     0.015000000     1.249000000    -0.269000000
H     0.127000000     2.313000000    -0.464000000
C     0.603000000     0.664000000     0.826000000
H     1.271000000     1.249000000     1.454000000
C     0.322000000    -0.604000000     1.136000000
H     0.681000000    -1.126000000     2.020000000
C    -0.405000000    -1.411000000     0.220000000
H    -0.554000000    -2.449000000     0.507000000
C    -0.842000000    -0.850000000    -0.969000000
C    -1.402000000    -1.781000000    -2.016000000
O    -1.513000000    -2.989000000    -1.858000000
O    -1.592000000    -1.312000000    -3.161000000
O    -3.732000000    -0.370000000    -6.771000000
H    -4.276000000    -1.093000000    -7.084000000
H    -4.310000000     0.393000000    -6.797000000
O    -3.752000000    -0.183000000     0.413000000
H    -3.314000000     0.416000000    -0.191000000
H    -3.039000000    -0.589000000     0.906000000
O    -3.310000000    -3.899000000    -3.645000000
H    -3.511000000    -4.495000000    -2.924000000
H    -2.457000000    -3.528000000    -3.420000000
O    -3.207000000    -6.055000000    -5.541000000
H    -3.250000000    -5.393000000    -4.851000000
H    -4.018000000    -5.939000000    -6.035000000
O     4.393000000     2.702000000    -2.771000000
H     4.158000000     1.962000000    -2.211000000
H     4.594000000     2.306000000    -3.619000000
O    -1.830000000     1.126000000     2.449000000
H    -2.041000000     1.906000000     1.936000000
H    -1.220000000     0.635000000     1.899000000
O    -1.537000000    -0.060000000    -5.434000000
H    -1.717000000    -0.534000000    -4.622000000
H    -2.296000000    -0.238000000    -5.989000000
O     2.782000000    -4.779000000     2.374000000
H     3.455000000    -4.562000000     3.019000000
H     3.020000000    -5.653000000     2.065000000
O     4.014000000     5.994000000     0.618000000
H     3.424000000     5.828000000    -0.117000000
H     4.878000000     5.740000000     0.294000000
O     1.359000000     3.139000000    -2.520000000
H     2.093000000     2.553000000    -2.339000000
H     0.791000000     2.639000000    -3.105000000
O     2.426000000    -3.049000000    -0.227000000
H     2.187000000    -2.353000000     0.385000000
H     2.294000000    -3.858000000     0.268000000
O    -2.014000000    -5.603000000     2.465000000
H    -1.670000000    -6.157000000     1.766000000
H    -1.437000000    -4.839000000     2.472000000
O     0.254000000    -6.182000000    -4.494000000
H    -0.531000000    -5.966000000    -4.997000000
H     0.980000000    -5.904000000    -5.053000000
O    -2.269000000    -2.656000000    -7.907000000
H    -2.800000000    -2.125000000    -7.313000000
H    -1.472000000    -2.845000000    -7.412000000
O     0.051000000    -0.158000000    -7.974000000
H     0.316000000     0.761000000    -7.926000000
H    -0.462000000    -0.300000000    -7.178000000
O     3.547000000     1.339000000     3.768000000
H     3.622000000     0.644000000     3.114000000
H     3.686000000     2.148000000     3.275000000
O     0.909000000     2.806000000     4.220000000
H     1.828000000     2.567000000     4.095000000
H     0.706000000     3.372000000     3.475000000
O    -1.020000000    -5.558000000    -1.821000000
H    -1.160000000    -4.620000000    -1.694000000
H    -0.497000000    -5.615000000    -2.621000000
O    -1.514000000     4.790000000    -1.476000000
H    -2.222000000     5.186000000    -1.985000000
H    -0.722000000     4.984000000    -1.977000000
O    -2.425000000     3.279000000     0.555000000
H    -1.965000000     4.009000000     0.142000000
H    -2.966000000     2.910000000    -0.143000000
O    -0.239000000    -2.749000000    -5.888000000
H     0.672000000    -3.023000000    -5.777000000
H    -0.313000000    -1.950000000    -5.367000000
O     2.917000000     5.156000000    -1.722000000
H     2.262000000     4.470000000    -1.852000000
H     3.726000000     4.785000000    -2.074000000
O     6.811000000    -0.054000000     1.976000000
H     7.665000000     0.163000000     1.600000000
H     6.995000000    -0.235000000     2.897000000
O     0.213000000     6.569000000     0.418000000
H     0.294000000     7.091000000    -0.380000000
H    -0.727000000     6.549000000     0.597000000
O    -2.133000000     3.002000000    -6.215000000
H    -2.420000000     3.515000000    -6.970000000
H    -2.929000000     2.579000000    -5.895000000
O    -3.523000000    -3.838000000    -0.365000000
H    -2.712000000    -3.492000000    -0.737000000
H    -3.711000000    -4.621000000    -0.883000000
O     2.727000000     0.637000000    -1.572000000
H     3.505000000     0.489000000    -1.033000000
H     2.008000000     0.692000000    -0.943000000
O     2.107000000     1.877000000    -6.012000000
H     1.797000000     2.082000000    -6.894000000
H     1.399000000     2.167000000    -5.436000000
O    -2.182000000    -8.167000000    -2.310000000
H    -2.981000000    -8.414000000    -1.844000000
H    -2.090000000    -7.229000000    -2.148000000
O     5.242000000    -0.114000000    -0.648000000
H     5.898000000    -0.554000000    -1.189000000
H     5.610000000    -0.132000000     0.236000000
O    -4.295000000    -5.920000000    -1.979000000
H    -4.708000000    -6.350000000    -2.728000000
H    -4.155000000    -6.625000000    -1.347000000
O     0.802000000    -4.781000000     5.460000000
H     0.686000000    -3.893000000     5.122000000
H     0.214000000    -4.829000000     6.214000000
O    -4.209000000     2.123000000    -1.393000000
H    -4.222000000     1.579000000    -2.181000000
H    -5.130000000     2.202000000    -1.142000000
O    -4.172000000     0.175000000    -3.407000000
H    -4.331000000    -0.310000000    -2.598000000
H    -3.792000000    -0.471000000    -4.003000000
O    -4.976000000    -1.458000000    -1.487000000
H    -5.072000000    -1.031000000    -0.635000000
H    -4.391000000    -2.197000000    -1.320000000
O     1.212000000     4.276000000     1.561000000
H     0.675000000     5.066000000     1.492000000
H     1.661000000     4.218000000     0.718000000
O     3.342000000    -1.459000000    -3.507000000
H     2.693000000    -2.141000000    -3.332000000
H     3.132000000    -0.763000000    -2.883000000
O     5.663000000     1.457000000     5.538000000
H     5.152000000     1.670000000     4.757000000
H     6.570000000     1.626000000     5.285000000
O     3.723000000    -0.741000000     1.720000000
H     4.124000000    -0.551000000     0.872000000
H     4.295000000    -1.400000000     2.113000000
O    -0.091000000     2.097000000    -4.454000000
H    -0.604000000     1.290000000    -4.493000000
H    -0.667000000     2.765000000    -4.824000000
O    -1.400000000     1.609000000     5.233000000
H    -0.760000000     2.309000000     5.100000000
H    -1.438000000     1.156000000     4.391000000
O    -1.541000000    -1.361000000     6.128000000
H    -1.075000000    -0.528000000     6.058000000
H    -2.284000000    -1.172000000     6.701000000
O     0.153000000    -3.893000000     2.385000000
H     1.042000000    -4.238000000     2.294000000
H     0.258000000    -3.092000000     2.898000000
O     1.598000000    -0.021000000     5.402000000
H     2.333000000     0.294000000     4.876000000
H     0.937000000     0.667000000     5.327000000
O     0.389000000    -2.132000000     4.262000000
H    -0.317000000    -2.027000000     4.899000000
H     0.955000000    -1.373000000     4.404000000
O    -0.549000000    -6.997000000     0.520000000
H     0.389000000    -7.163000000     0.619000000
H    -0.618000000    -6.488000000    -0.288000000
O     4.283000000     3.657000000     2.643000000
H     4.947000000     3.929000000     3.277000000
H     3.598000000     4.323000000     2.715000000
O     1.074000000    -2.906000000    -3.077000000
H     1.387000000    -3.215000000    -2.226000000
H     0.122000000    -2.869000000    -2.982000000
