158
-3011.70776
C    -0.908000000     0.083000000    -1.142000000
H    -1.430000000    -0.028000000    -2.089000000
C     0.477000000    -0.098000000    -1.189000000
H     0.962000000    -0.320000000    -2.136000000
C     1.205000000    -0.137000000    -0.077000000
H     2.226000000    -0.260000000    -0.247000000
C     0.649000000     0.035000000     1.206000000
H     1.359000000    -0.046000000     2.025000000
C    -0.803000000     0.148000000     1.213000000
H    -1.361000000     0.126000000     2.146000000
C    -1.584000000     0.051000000     0.105000000
C    -3.111000000     0.060000000     0.254000000
O    -3.606000000     0.421000000     1.286000000
O    -3.821000000    -0.096000000    -0.718000000
O     5.563000000     3.986000000    -3.087000000
H     4.914000000     4.075000000    -2.389000000
H     6.400000000     4.163000000    -2.658000000
O    -3.590000000    -2.637000000     2.463000000
H    -3.930000000    -1.918000000     1.930000000
H    -2.696000000    -2.768000000     2.147000000
O     4.094000000    -3.418000000     0.119000000
H     4.902000000    -3.854000000    -0.151000000
H     4.383000000    -2.722000000     0.709000000
O     0.325000000     2.904000000    -0.762000000
H     0.110000000     1.972000000    -0.793000000
H    -0.341000000     3.321000000    -1.309000000
O     1.778000000     4.497000000     4.698000000
H     1.035000000     4.746000000     5.248000000
H     1.390000000     3.980000000     3.992000000
O     1.347000000    -1.948000000     7.113000000
H     0.910000000    -2.204000000     6.301000000
H     0.637000000    -1.660000000     7.687000000
O    -0.221000000    -5.402000000    -0.704000000
H    -0.996000000    -5.641000000    -0.194000000
H     0.365000000    -4.989000000    -0.070000000
O    -4.575000000     2.336000000     6.071000000
H    -4.350000000     1.734000000     5.363000000
H    -3.773000000     2.835000000     6.225000000
O    -3.839000000     0.912000000     3.837000000
H    -3.800000000     0.795000000     2.887000000
H    -3.242000000     0.250000000     4.185000000
O    -7.345000000    -2.263000000     1.168000000
H    -6.657000000    -2.321000000     0.505000000
H    -8.129000000    -2.018000000     0.677000000
O    -1.240000000    -3.017000000     1.472000000
H    -0.370000000    -2.622000000     1.431000000
H    -1.074000000    -3.948000000     1.624000000
O    -5.575000000    -2.525000000    -3.986000000
H    -6.349000000    -2.446000000    -3.428000000
H    -5.077000000    -1.725000000    -3.820000000
O    -0.515000000    -0.432000000    -4.957000000
H    -0.217000000    -0.904000000    -5.734000000
H    -1.144000000    -1.023000000    -4.544000000
O     3.614000000     5.244000000    -1.637000000
H     2.675000000     5.403000000    -1.546000000
H     4.025000000     5.936000000    -1.118000000
O     4.021000000     2.246000000     0.313000000
H     3.832000000     2.010000000    -0.595000000
H     4.590000000     3.013000000     0.248000000
O    -3.085000000     3.556000000     1.230000000
H    -3.125000000     3.959000000     0.362000000
H    -3.451000000     2.681000000     1.104000000
O    -2.925000000     1.841000000    -4.680000000
H    -3.319000000     2.293000000    -5.427000000
H    -2.014000000     1.703000000    -4.937000000
O    -1.567000000    -0.697000000     4.588000000
H    -0.860000000    -1.336000000     4.500000000
H    -2.137000000    -1.061000000     5.266000000
O    -6.648000000     2.146000000     2.875000000
H    -7.046000000     1.666000000     3.601000000
H    -5.756000000     2.332000000     3.171000000
O    -2.351000000    -2.243000000    -4.006000000
H    -2.309000000    -2.037000000    -3.072000000
H    -2.891000000    -3.031000000    -4.053000000
O    -0.232000000     1.649000000     5.293000000
H    -0.758000000     0.889000000     5.045000000
H    -0.160000000     2.163000000     4.488000000
O     2.275000000    -0.744000000    -6.175000000
H     3.216000000    -0.573000000    -6.176000000
H     1.887000000     0.053000000    -5.812000000
O     3.886000000    -4.767000000    -4.743000000
H     3.620000000    -4.198000000    -4.022000000
H     3.606000000    -4.301000000    -5.532000000
O    -2.828000000     4.420000000     3.932000000
H    -3.113000000     4.101000000     3.076000000
H    -2.015000000     3.946000000     4.106000000
O     3.616000000    -0.943000000    -2.969000000
H     4.132000000    -0.823000000    -3.766000000
H     3.371000000    -0.056000000    -2.706000000
O    -3.167000000    -2.893000000    -0.743000000
H    -3.348000000    -1.960000000    -0.625000000
H    -2.376000000    -3.051000000    -0.229000000
O     1.508000000     3.890000000    -3.275000000
H     1.017000000     4.657000000    -2.980000000
H     1.294000000     3.209000000    -2.637000000
O     2.894000000    -3.528000000    -2.249000000
H     2.727000000    -2.592000000    -2.359000000
H     3.369000000    -3.590000000    -1.420000000
O     4.737000000     0.119000000     3.821000000
H     3.835000000     0.438000000     3.789000000
H     4.820000000    -0.443000000     3.051000000
O     5.507000000    -1.529000000     1.656000000
H     5.839000000    -2.052000000     2.386000000
H     6.249000000    -0.981000000     1.398000000
O     7.188000000    -0.855000000    -0.844000000
H     7.721000000    -0.325000000    -1.437000000
H     6.403000000    -1.064000000    -1.350000000
O     2.580000000    -4.161000000     3.939000000
H     2.295000000    -4.977000000     4.351000000
H     3.359000000    -3.903000000     4.432000000
O    -4.915000000    -4.794000000     0.397000000
H    -4.882000000    -5.516000000    -0.231000000
H    -4.184000000    -4.227000000     0.148000000
O    -2.019000000     3.277000000    -2.320000000
H    -1.984000000     4.021000000    -2.921000000
H    -2.655000000     2.681000000    -2.714000000
O     1.634000000    -4.284000000     1.031000000
H     1.821000000    -4.198000000     1.965000000
H     2.410000000    -3.931000000     0.597000000
O     3.872000000     1.887000000    -2.583000000
H     3.480000000     2.594000000    -3.095000000
H     4.802000000     1.916000000    -2.807000000
O    -8.935000000     0.255000000     2.999000000
H    -9.351000000     0.933000000     2.466000000
H    -8.272000000    -0.127000000     2.425000000
O    -4.390000000     0.028000000    -3.288000000
H    -4.081000000    -0.214000000    -2.414000000
H    -3.848000000     0.777000000    -3.534000000
O     1.758000000     3.537000000     1.393000000
H     2.663000000     3.264000000     1.241000000
H     1.266000000     3.148000000     0.670000000
O     1.273000000    -5.670000000    -3.001000000
H     1.813000000    -4.909000000    -2.788000000
H     0.649000000    -5.731000000    -2.279000000
O     1.380000000     1.613000000    -5.142000000
H     0.684000000     1.203000000    -4.628000000
H     1.184000000     2.549000000    -5.108000000
O     0.305000000    -2.545000000     4.535000000
H     1.036000000    -2.561000000     3.917000000
H    -0.109000000    -3.402000000     4.439000000
O    -3.220000000    -1.051000000    -6.306000000
H    -4.037000000    -0.657000000    -5.999000000
H    -2.784000000    -1.349000000    -5.508000000
O    -5.724000000     3.600000000    -2.446000000
H    -6.277000000     3.940000000    -1.742000000
H    -5.972000000     2.679000000    -2.522000000
O    -0.450000000     3.288000000     3.012000000
H    -1.184000000     2.985000000     2.478000000
H     0.255000000     3.446000000     2.384000000
O    -6.378000000     0.736000000     0.599000000
H    -5.507000000     0.406000000     0.381000000
H    -6.263000000     1.177000000     1.441000000
O    -7.047000000     1.101000000    -2.093000000
H    -7.132000000     1.143000000    -1.141000000
H    -6.346000000     0.467000000    -2.243000000
O    -4.902000000    -3.773000000     4.443000000
H    -4.212000000    -3.528000000     3.826000000
H    -5.315000000    -4.541000000     4.047000000
