158
-3036.82256
C    -1.291000000     0.196000000    -0.704000000
H    -2.175000000     0.420000000    -1.296000000
C    -0.421000000     1.184000000    -0.261000000
H    -0.699000000     2.214000000    -0.467000000
C     0.774000000     0.896000000     0.418000000
H     1.343000000     1.708000000     0.765000000
C     1.107000000    -0.425000000     0.655000000
H     2.011000000    -0.679000000     1.203000000
C     0.238000000    -1.407000000     0.268000000
H     0.391000000    -2.430000000     0.604000000
C    -0.945000000    -1.146000000    -0.456000000
C    -1.962000000    -2.213000000    -0.942000000
O    -1.557000000    -3.384000000    -0.957000000
O    -2.962000000    -1.889000000    -1.538000000
O     3.221000000    -6.782000000     2.397000000
H     2.672000000    -7.245000000     3.030000000
H     3.042000000    -5.856000000     2.558000000
O    -2.230000000    -4.657000000     2.616000000
H    -2.999000000    -4.249000000     3.014000000
H    -2.567000000    -5.090000000     1.831000000
O     5.832000000     4.752000000    -2.325000000
H     5.463000000     3.870000000    -2.276000000
H     6.334000000     4.758000000    -3.140000000
O    -2.338000000    -6.676000000    -4.313000000
H    -2.604000000    -5.806000000    -4.016000000
H    -1.648000000    -6.509000000    -4.955000000
O    -3.813000000    -4.036000000    -3.662000000
H    -4.505000000    -4.459000000    -3.155000000
H    -3.313000000    -3.538000000    -3.015000000
O    -3.775000000    -3.184000000    -6.092000000
H    -3.937000000    -3.464000000    -5.191000000
H    -2.899000000    -2.800000000    -6.070000000
O     2.104000000     2.020000000    -3.714000000
H     1.295000000     1.602000000    -3.420000000
H     1.865000000     2.454000000    -4.534000000
O     2.910000000     5.701000000     3.392000000
H     2.631000000     6.191000000     2.619000000
H     3.659000000     5.186000000     3.091000000
O     1.212000000    -6.260000000    -3.362000000
H     1.724000000    -6.632000000    -2.644000000
H     1.493000000    -6.749000000    -4.135000000
O    -2.999000000     0.240000000    -3.583000000
H    -3.883000000     0.589000000    -3.690000000
H    -3.131000000    -0.667000000    -3.308000000
O     2.662000000     3.914000000    -1.694000000
H     1.986000000     4.585000000    -1.789000000
H     2.493000000     3.300000000    -2.409000000
O    -3.238000000     2.074000000     1.772000000
H    -3.785000000     2.352000000     2.507000000
H    -3.510000000     2.636000000     1.046000000
O     7.092000000     3.995000000     0.408000000
H     6.631000000     3.462000000    -0.240000000
H     8.019000000     3.879000000     0.198000000
O    -1.086000000     0.999000000     3.389000000
H    -0.305000000     1.524000000     3.209000000
H    -1.613000000     1.074000000     2.594000000
O    -6.891000000     0.107000000     0.559000000
H    -7.124000000     0.941000000     0.150000000
H    -5.938000000     0.138000000     0.641000000
O     4.255000000    -1.928000000    -1.257000000
H     3.489000000    -1.485000000    -1.623000000
H     4.740000000    -1.237000000    -0.807000000
O     4.784000000     1.181000000    -3.927000000
H     4.817000000     0.257000000    -4.174000000
H     3.862000000     1.343000000    -3.728000000
O    -0.308000000    -3.704000000    -3.351000000
H    -0.889000000    -3.759000000    -2.592000000
H    -0.005000000    -4.602000000    -3.486000000
O    -6.817000000    -0.941000000    -4.550000000
H    -6.234000000    -1.050000000    -3.798000000
H    -6.456000000    -0.193000000    -5.026000000
O     4.118000000     0.260000000     3.006000000
H     3.797000000    -0.608000000     3.252000000
H     3.438000000     0.861000000     3.310000000
O     0.175000000    -5.526000000    -0.239000000
H    -0.258000000    -4.703000000    -0.468000000
H     0.357000000    -5.943000000    -1.081000000
O     2.135000000     2.816000000     6.264000000
H     1.845000000     2.712000000     7.171000000
H     1.770000000     3.658000000     5.992000000
O    -3.291000000     5.761000000     0.682000000
H    -3.087000000     6.351000000    -0.043000000
H    -3.366000000     4.898000000     0.275000000
O     2.100000000     1.900000000     3.755000000
H     1.486000000     2.494000000     3.323000000
H     2.194000000     2.254000000     4.639000000
O     1.942000000     6.536000000     0.903000000
H     1.876000000     7.238000000     0.256000000
H     2.568000000     5.919000000     0.524000000
O    -3.076000000    -5.651000000    -0.014000000
H    -2.391000000    -5.001000000    -0.167000000
H    -3.512000000    -5.744000000    -0.861000000
O     1.603000000    -0.792000000    -2.413000000
H     1.148000000    -0.536000000    -3.216000000
H     1.183000000    -0.275000000    -1.725000000
O    -6.464000000    -5.010000000     0.686000000
H    -6.129000000    -4.887000000    -0.202000000
H    -6.056000000    -5.822000000     0.987000000
O    -7.493000000    -2.217000000    -0.529000000
H    -7.372000000    -1.288000000    -0.332000000
H    -7.133000000    -2.672000000     0.232000000
O     5.275000000     2.186000000    -1.201000000
H     4.457000000     2.032000000    -1.674000000
H     5.314000000     1.480000000    -0.556000000
O    -5.571000000    -5.585000000    -2.096000000
H    -6.276000000    -5.580000000    -2.744000000
H    -5.611000000    -6.458000000    -1.707000000
O    -1.647000000     5.344000000    -2.784000000
H    -2.372000000     4.720000000    -2.801000000
H    -1.999000000     6.107000000    -2.325000000
O    -4.602000000     3.396000000    -0.138000000
H    -4.556000000     2.637000000    -0.719000000
H    -5.527000000     3.461000000     0.099000000
O     5.201000000    -4.161000000    -0.008000000
H     4.744000000    -3.583000000    -0.619000000
H     5.500000000    -3.582000000     0.692000000
O    -5.233000000     1.501000000    -2.025000000
H    -5.748000000     2.000000000    -2.659000000
H    -5.560000000     0.605000000    -2.104000000
O    -5.372000000    -1.163000000    -2.288000000
H    -4.591000000    -1.472000000    -1.828000000
H    -6.101000000    -1.580000000    -1.829000000
O     4.162000000     5.070000000     0.333000000
H     3.713000000     4.504000000    -0.296000000
H     5.092000000     4.894000000     0.192000000
O    -0.405000000     0.896000000    -3.835000000
H    -0.570000000     1.592000000    -4.470000000
H    -1.262000000     0.714000000    -3.451000000
O     5.696000000     0.059000000     0.368000000
H     6.580000000    -0.234000000     0.590000000
H     5.279000000     0.226000000     1.213000000
O    -0.333000000     3.777000000    -4.809000000
H    -1.065000000     4.021000000    -5.375000000
H    -0.528000000     4.198000000    -3.971000000
O     0.071000000     3.634000000     2.881000000
H    -0.190000000     4.128000000     3.658000000
H     0.008000000     4.266000000     2.164000000
O    -2.714000000    -1.130000000     3.882000000
H    -2.209000000    -1.716000000     4.446000000
H    -2.080000000    -0.473000000     3.592000000
O     2.927000000    -2.143000000     3.067000000
H     3.360000000    -2.995000000     3.003000000
H     2.019000000    -2.317000000     2.817000000
O     0.816000000    -0.054000000     5.346000000
H     1.714000000     0.248000000     5.487000000
H     0.665000000     0.074000000     4.409000000
O     0.473000000    -4.967000000     2.502000000
H     0.319000000    -5.134000000     1.573000000
H    -0.383000000    -4.712000000     2.846000000
O     5.791000000     1.379000000     5.170000000
H     6.637000000     1.815000000     5.062000000
H     5.595000000     1.020000000     4.305000000
O    -4.263000000    -0.543000000     0.694000000
H    -3.961000000    -0.964000000    -0.110000000
H    -3.489000000    -0.094000000     1.035000000
O    -1.420000000    -1.837000000    -4.903000000
H    -1.037000000    -2.468000000    -4.293000000
H    -1.519000000    -1.036000000    -4.388000000
