158
-3009.38102
C    -1.433000000     0.169000000    -0.249000000
H    -2.518000000     0.218000000    -0.282000000
C    -0.758000000     0.604000000     0.888000000
H    -1.231000000     1.007000000     1.780000000
C     0.558000000     0.385000000     1.025000000
H     1.052000000     0.699000000     1.980000000
C     1.311000000    -0.174000000    -0.005000000
H     2.387000000    -0.313000000     0.048000000
C     0.657000000    -0.478000000    -1.255000000
H     1.224000000    -0.827000000    -2.114000000
C    -0.778000000    -0.444000000    -1.310000000
C    -1.518000000    -0.854000000    -2.557000000
O    -0.931000000    -1.431000000    -3.446000000
O    -2.721000000    -0.772000000    -2.602000000
O    -1.598000000     3.404000000    -3.409000000
H    -1.466000000     3.906000000    -4.214000000
H    -2.396000000     2.900000000    -3.569000000
O     5.034000000     2.580000000    -2.475000000
H     4.444000000     1.841000000    -2.625000000
H     4.566000000     3.138000000    -1.853000000
O     3.775000000     1.572000000    -5.461000000
H     3.480000000     1.040000000    -6.200000000
H     4.322000000     0.981000000    -4.943000000
O     1.954000000     0.414000000    -7.599000000
H     1.302000000     0.032000000    -7.011000000
H     1.789000000     1.356000000    -7.561000000
O     2.465000000     3.391000000     1.970000000
H     1.847000000     3.316000000     2.697000000
H     2.833000000     2.512000000     1.876000000
O     1.529000000    -3.618000000     1.401000000
H     0.705000000    -3.171000000     1.594000000
H     2.107000000    -3.378000000     2.126000000
O     3.360000000    -2.960000000    -4.171000000
H     3.224000000    -3.370000000    -5.025000000
H     3.919000000    -3.575000000    -3.696000000
O    -4.239000000    -1.382000000    -4.854000000
H    -4.117000000    -0.579000000    -4.349000000
H    -3.632000000    -2.008000000    -4.459000000
O     0.729000000     0.859000000     5.179000000
H     1.074000000     1.065000000     6.048000000
H     0.740000000     1.695000000     4.713000000
O     0.280000000     3.881000000     4.217000000
H     0.195000000     4.834000000     4.217000000
H    -0.294000000     3.589000000     4.925000000
O    -2.608000000    -3.884000000    -3.412000000
H    -1.994000000    -3.157000000    -3.516000000
H    -2.067000000    -4.613000000    -3.107000000
O     4.831000000    -0.772000000    -3.667000000
H     5.014000000    -0.929000000    -2.741000000
H     4.126000000    -1.383000000    -3.880000000
O     5.051000000    -2.472000000     0.667000000
H     5.735000000    -2.190000000     1.274000000
H     4.233000000    -2.308000000     1.137000000
O    -0.274000000    -1.713000000     4.459000000
H     0.077000000    -0.833000000     4.327000000
H    -0.511000000    -2.011000000     3.581000000
O    -3.864000000     2.064000000     5.404000000
H    -3.339000000     2.826000000     5.160000000
H    -3.663000000     1.919000000     6.328000000
O    -4.374000000    -5.421000000    -5.543000000
H    -5.110000000    -4.812000000    -5.593000000
H    -3.671000000    -4.915000000    -5.135000000
O    -2.905000000     0.094000000     3.649000000
H    -3.455000000     0.878000000     3.651000000
H    -2.901000000    -0.198000000     4.560000000
O    -4.688000000    -4.313000000    -1.779000000
H    -4.586000000    -5.261000000    -1.703000000
H    -3.964000000    -4.039000000    -2.342000000
O     0.740000000     2.132000000    -3.959000000
H    -0.079000000     2.625000000    -3.906000000
H     1.368000000     2.656000000    -3.463000000
O    -6.253000000     1.694000000    -2.585000000
H    -6.850000000     1.609000000    -3.329000000
H    -6.561000000     1.042000000    -1.956000000
O     1.967000000     2.042000000     7.328000000
H     1.175000000     2.329000000     7.784000000
H     2.651000000     2.635000000     7.641000000
O    -7.459000000    -0.483000000    -0.304000000
H    -6.605000000    -0.700000000    -0.678000000
H    -7.516000000    -1.019000000     0.487000000
O     4.824000000    -1.627000000     5.496000000
H     4.429000000    -2.434000000     5.827000000
H     5.377000000    -1.912000000     4.768000000
O     1.998000000     3.884000000    -2.098000000
H     2.303000000     4.783000000    -1.980000000
H     1.368000000     3.750000000    -1.389000000
O     1.240000000    -2.878000000     6.571000000
H     0.603000000    -2.380000000     6.058000000
H     1.378000000    -2.351000000     7.358000000
O    -3.594000000     1.563000000    -3.502000000
H    -3.193000000     0.777000000    -3.132000000
H    -4.456000000     1.611000000    -3.089000000
O     5.739000000     4.196000000     2.844000000
H     6.450000000     3.570000000     2.709000000
H     4.968000000     3.767000000     2.474000000
O     0.274000000    -0.261000000    -5.421000000
H     0.790000000     0.398000000    -4.956000000
H    -0.125000000    -0.786000000    -4.727000000
O    -6.169000000     2.890000000     0.083000000
H    -6.125000000     2.651000000    -0.843000000
H    -5.518000000     3.584000000     0.182000000
O     4.168000000     1.362000000     1.652000000
H     4.442000000     0.680000000     2.265000000
H     4.986000000     1.766000000     1.363000000
O    -4.781000000    -1.433000000    -0.998000000
H    -4.122000000    -1.163000000    -1.638000000
H    -4.601000000    -2.361000000    -0.847000000
O     2.074000000     5.969000000     1.606000000
H     2.413000000     5.077000000     1.534000000
H     2.687000000     6.500000000     1.098000000
O    -0.873000000    -6.020000000    -3.282000000
H    -0.625000000    -5.730000000    -4.160000000
H    -0.124000000    -6.533000000    -2.978000000
O    -2.334000000    -1.380000000     6.016000000
H    -3.016000000    -1.853000000     5.539000000
H    -1.527000000    -1.576000000     5.539000000
O     0.215000000     3.321000000     0.231000000
H     0.845000000     3.509000000     0.926000000
H     0.170000000     2.365000000     0.201000000
O     5.867000000    -0.508000000    -1.250000000
H     6.685000000    -0.094000000    -0.977000000
H     5.693000000    -1.164000000    -0.576000000
O     1.770000000     5.241000000     6.092000000
H     2.592000000     5.494000000     5.672000000
H     1.373000000     4.618000000     5.483000000
O     1.687000000    -4.532000000     4.154000000
H     0.763000000    -4.758000000     4.047000000
H     1.709000000    -3.982000000     4.938000000
O    -4.091000000    -2.099000000     1.731000000
H    -3.698000000    -1.443000000     2.306000000
H    -4.311000000    -1.617000000     0.933000000
O    -0.609000000    -4.030000000    -0.710000000
H    -0.035000000    -3.654000000    -0.042000000
H    -0.171000000    -3.833000000    -1.539000000
O     4.604000000     1.268000000     5.938000000
H     3.741000000     0.974000000     6.230000000
H     4.978000000     0.507000000     5.494000000
O     3.871000000     5.600000000     4.181000000
H     4.451000000     4.933000000     3.812000000
H     3.131000000     5.635000000     3.575000000
O    -0.718000000    -2.319000000     1.845000000
H    -1.419000000    -2.603000000     1.258000000
H    -0.311000000    -1.580000000     1.393000000
O     0.878000000    -3.321000000    -3.189000000
H     1.675000000    -2.937000000    -3.554000000
H     0.204000000    -2.656000000    -3.332000000
O     3.238000000    -1.688000000     2.942000000
H     3.907000000    -2.287000000     3.274000000
H     2.772000000    -1.393000000     3.725000000
O    -1.998000000     1.710000000    -6.071000000
H    -2.252000000     1.363000000    -5.216000000
H    -1.199000000     1.232000000    -6.295000000
O     1.080000000    -3.106000000    -6.349000000
H     0.730000000    -2.292000000    -5.985000000
H     0.903000000    -3.044000000    -7.288000000
O     2.750000000    -5.316000000    -2.369000000
H     2.096000000    -4.720000000    -2.734000000
H     2.427000000    -5.516000000    -1.491000000
