14
-83.71163
C     1.017000000    -0.100000000     1.042000000
H     1.715000000    -0.065000000     1.874000000
C    -0.058000000     0.748000000     1.081000000
H    -0.148000000     1.500000000     1.861000000
C    -0.934000000     0.766000000     0.038000000
H    -1.769000000     1.441000000    -0.050000000
C    -0.815000000    -0.189000000    -1.033000000
H    -1.620000000    -0.161000000    -1.763000000
C     0.278000000    -0.998000000    -1.032000000
H     0.344000000    -1.779000000    -1.784000000
C     1.170000000    -1.057000000     0.008000000
C     2.327000000    -1.976000000     0.033000000
O     2.756000000    -2.382000000    -1.033000000
O     2.636000000    -2.569000000     1.057000000
