14
-91.78894
C    -0.068000000     0.100000000     1.475000000
H    -0.200000000     0.287000000     2.537000000
C    -0.927000000     0.764000000     0.573000000
H    -1.692000000     1.408000000     1.000000000
C    -0.694000000     0.583000000    -0.807000000
H    -1.381000000     1.042000000    -1.505000000
C     0.293000000    -0.240000000    -1.241000000
H     0.439000000    -0.360000000    -2.311000000
C     1.111000000    -0.967000000    -0.341000000
H     1.877000000    -1.625000000    -0.744000000
C     0.918000000    -0.799000000     1.031000000
C     1.841000000    -1.370000000     2.007000000
O     3.001000000    -1.748000000     1.676000000
O     1.508000000    -1.437000000     3.187000000
