14
-77.49919
C    -1.155000000     0.456000000    -0.749000000
H    -2.059000000     0.941000000    -1.107000000
C    -1.170000000    -0.059000000     0.514000000
H    -2.105000000    -0.025000000     1.068000000
C    -0.041000000    -0.465000000     1.118000000
H    -0.035000000    -0.834000000     2.141000000
C     1.147000000    -0.334000000     0.474000000
H     2.017000000    -0.740000000     0.983000000
C     1.168000000     0.088000000    -0.798000000
H     2.154000000     0.082000000    -1.256000000
C     0.027000000     0.467000000    -1.521000000
C     0.059000000     0.969000000    -2.966000000
O     1.054000000     1.250000000    -3.582000000
O    -0.998000000     1.311000000    -3.480000000
