14
-85.23596
C    -0.747000000     0.507000000    -1.154000000
H    -1.330000000     0.982000000    -1.939000000
C    -0.893000000     0.944000000     0.075000000
H    -1.577000000     1.737000000     0.365000000
C    -0.059000000     0.431000000     1.110000000
H    -0.119000000     0.770000000     2.112000000
C     0.824000000    -0.590000000     0.836000000
H     1.510000000    -0.933000000     1.606000000
C     0.848000000    -1.127000000    -0.443000000
H     1.428000000    -2.001000000    -0.728000000
C     0.015000000    -0.612000000    -1.435000000
C     0.124000000    -1.175000000    -2.852000000
O     0.522000000    -2.301000000    -3.033000000
O    -0.122000000    -0.455000000    -3.783000000
