14
-86.95799
C    -0.454000000     0.273000000    -1.395000000
H    -0.749000000     0.508000000    -2.414000000
C    -0.729000000     1.096000000    -0.301000000
H    -1.095000000     2.108000000    -0.449000000
C    -0.295000000     0.734000000     0.972000000
H    -0.556000000     1.370000000     1.796000000
C     0.429000000    -0.441000000     1.183000000
H     0.728000000    -0.704000000     2.194000000
C     0.721000000    -1.264000000     0.051000000
H     1.181000000    -2.235000000     0.219000000
C     0.303000000    -0.934000000    -1.283000000
C     0.593000000    -1.901000000    -2.404000000
O     1.206000000    -2.929000000    -2.184000000
O     0.016000000    -1.798000000    -3.471000000
