14
-82.95071
C    -0.800000000     0.354000000    -1.285000000
H    -1.460000000     0.676000000    -2.086000000
C    -1.182000000     0.551000000     0.090000000
H    -2.202000000     0.832000000     0.341000000
C    -0.436000000     0.037000000     1.143000000
H    -0.906000000    -0.093000000     2.144000000
C     0.817000000    -0.394000000     0.867000000
H     1.370000000    -0.830000000     1.694000000
C     1.338000000    -0.416000000    -0.394000000
H     2.354000000    -0.790000000    -0.496000000
C     0.538000000    -0.097000000    -1.501000000
C     1.071000000    -0.154000000    -2.888000000
O     2.058000000    -0.811000000    -3.070000000
O     0.368000000     0.225000000    -3.839000000
