14
-87.28615
C    -1.346000000     0.445000000    -0.269000000
H    -2.345000000     0.846000000    -0.418000000
C    -0.799000000     0.371000000     0.958000000
H    -1.331000000     0.674000000     1.856000000
C     0.449000000    -0.192000000     1.156000000
H     0.846000000    -0.302000000     2.161000000
C     1.198000000    -0.457000000     0.027000000
H     2.232000000    -0.782000000     0.111000000
C     0.668000000    -0.352000000    -1.270000000
H     1.286000000    -0.657000000    -2.110000000
C    -0.672000000     0.132000000    -1.407000000
C    -1.311000000     0.370000000    -2.778000000
O    -0.733000000    -0.066000000    -3.762000000
O    -2.310000000     1.052000000    -2.953000000
