14
-82.37911
C     0.108000000     1.502000000     0.065000000
H     0.166000000     2.571000000     0.253000000
C    -0.646000000     0.706000000     0.920000000
H    -1.088000000     1.117000000     1.824000000
C    -0.615000000    -0.701000000     0.800000000
H    -1.250000000    -1.390000000     1.366000000
C     0.187000000    -1.290000000    -0.191000000
H     0.196000000    -2.375000000    -0.257000000
C     0.781000000    -0.459000000    -1.110000000
H     1.463000000    -0.873000000    -1.849000000
C     0.798000000     0.908000000    -0.966000000
C     1.644000000     1.754000000    -1.885000000
O     2.184000000     1.108000000    -2.785000000
O     1.483000000     2.938000000    -2.050000000
