14
-88.23159
C    -1.331000000     0.538000000    -0.171000000
H    -2.375000000     0.744000000    -0.390000000
C    -0.890000000    -0.049000000     1.006000000
H    -1.561000000    -0.261000000     1.835000000
C     0.467000000    -0.404000000     1.060000000
H     1.020000000    -0.822000000     1.927000000
C     1.318000000    -0.173000000    -0.014000000
H     2.337000000    -0.522000000     0.133000000
C     0.802000000     0.261000000    -1.203000000
H     1.460000000     0.346000000    -2.064000000
C    -0.499000000     0.638000000    -1.322000000
C    -1.094000000     1.164000000    -2.630000000
O    -0.458000000     1.042000000    -3.663000000
O    -2.094000000     1.892000000    -2.609000000
