14
-82.42194
C    -0.439000000     1.265000000    -0.520000000
H    -0.837000000     2.223000000    -0.847000000
C    -0.800000000     0.697000000     0.698000000
H    -1.536000000     1.221000000     1.303000000
C    -0.246000000    -0.451000000     1.110000000
H    -0.605000000    -0.903000000     2.051000000
C     0.532000000    -1.148000000     0.200000000
H     0.817000000    -2.153000000     0.501000000
C     0.904000000    -0.641000000    -1.017000000
H     1.588000000    -1.160000000    -1.684000000
C     0.534000000     0.613000000    -1.352000000
C     0.950000000     1.204000000    -2.689000000
O     1.657000000     0.500000000    -3.347000000
O     0.536000000     2.250000000    -3.106000000
