14
-90.14374
C    -0.693000000     0.217000000    -1.310000000
H    -1.070000000     0.456000000    -2.301000000
C     0.659000000     0.202000000    -1.089000000
H     1.365000000     0.529000000    -1.848000000
C     1.188000000     0.028000000     0.220000000
H     2.275000000     0.162000000     0.343000000
C     0.399000000    -0.308000000     1.257000000
H     0.805000000    -0.365000000     2.264000000
C    -0.991000000    -0.360000000     1.056000000
H    -1.725000000    -0.509000000     1.844000000
C    -1.531000000    -0.053000000    -0.211000000
C    -3.039000000    -0.072000000    -0.483000000
O    -3.817000000    -0.080000000     0.475000000
O    -3.485000000    -0.187000000    -1.609000000
