14
-86.44935
C     0.033000000     1.461000000    -0.377000000
H    -0.042000000     2.528000000    -0.571000000
C    -0.791000000     0.834000000     0.611000000
H    -1.505000000     1.453000000     1.147000000
C    -0.769000000    -0.548000000     0.855000000
H    -1.370000000    -1.112000000     1.586000000
C     0.104000000    -1.302000000     0.111000000
H     0.135000000    -2.378000000     0.256000000
C     1.001000000    -0.705000000    -0.737000000
H     1.703000000    -1.394000000    -1.198000000
C     1.014000000     0.665000000    -1.044000000
C     2.054000000     1.216000000    -1.928000000
O     3.202000000     0.702000000    -1.885000000
O     1.887000000     2.208000000    -2.575000000
