14
-89.43971
C    -1.129000000     0.886000000    -0.149000000
H    -2.050000000     1.453000000    -0.261000000
C    -0.835000000     0.098000000     0.937000000
H    -1.535000000    -0.001000000     1.763000000
C     0.284000000    -0.705000000     0.916000000
H     0.439000000    -1.236000000     1.763000000
C     1.183000000    -0.656000000    -0.120000000
H     2.092000000    -1.252000000    -0.094000000
C     0.931000000     0.188000000    -1.223000000
H     1.617000000     0.186000000    -2.067000000
C    -0.296000000     0.902000000    -1.230000000
C    -0.648000000     1.741000000    -2.405000000
O    -1.539000000     2.605000000    -2.283000000
O    -0.095000000     1.607000000    -3.505000000
