14
-87.70741
C    -1.208000000     0.632000000    -0.531000000
H    -2.040000000     1.225000000    -0.902000000
C    -0.748000000     0.841000000     0.756000000
H    -1.255000000     1.483000000     1.471000000
C     0.414000000     0.089000000     1.128000000
H     0.788000000     0.216000000     2.187000000
C     1.052000000    -0.754000000     0.254000000
H     1.990000000    -1.166000000     0.617000000
C     0.578000000    -0.911000000    -1.024000000
H     1.045000000    -1.587000000    -1.735000000
C    -0.583000000    -0.191000000    -1.415000000
C    -1.079000000    -0.285000000    -2.827000000
O    -1.778000000     0.628000000    -3.267000000
O    -0.891000000    -1.258000000    -3.495000000
