14
-80.71194
C    -1.401000000    -0.318000000    -0.541000000
H    -2.425000000    -0.362000000    -0.901000000
C    -1.145000000     0.562000000     0.518000000
H    -1.951000000     1.092000000     1.020000000
C     0.150000000     0.747000000     0.908000000
H     0.266000000     1.378000000     1.848000000
C     1.192000000     0.082000000     0.340000000
H     2.137000000     0.105000000     0.877000000
C     0.930000000    -0.766000000    -0.699000000
H     1.681000000    -1.452000000    -1.082000000
C    -0.315000000    -0.983000000    -1.175000000
C    -0.513000000    -1.827000000    -2.410000000
O     0.459000000    -1.876000000    -3.225000000
O    -1.572000000    -2.230000000    -2.802000000
