14
-87.52673
C    -1.307000000     0.049000000    -0.683000000
H    -2.338000000     0.054000000    -1.026000000
C    -1.036000000     0.236000000     0.658000000
H    -1.857000000     0.306000000     1.368000000
C     0.207000000     0.062000000     1.194000000
H     0.350000000     0.134000000     2.265000000
C     1.280000000    -0.001000000     0.313000000
H     2.302000000     0.014000000     0.683000000
C     1.089000000    -0.165000000    -1.020000000
H     1.989000000    -0.399000000    -1.582000000
C    -0.243000000    -0.174000000    -1.539000000
C    -0.598000000    -0.494000000    -2.990000000
O     0.152000000    -0.404000000    -3.963000000
O    -1.759000000    -0.906000000    -3.168000000
