14
-75.17898
C    -1.117000000     0.771000000    -0.421000000
H    -2.074000000     1.224000000    -0.666000000
C    -0.867000000     0.454000000     0.888000000
H    -1.518000000     0.646000000     1.737000000
C     0.192000000    -0.354000000     1.111000000
H     0.485000000    -0.657000000     2.141000000
C     1.109000000    -0.685000000     0.131000000
H     2.007000000    -1.213000000     0.442000000
C     0.957000000    -0.114000000    -1.118000000
H     1.699000000    -0.250000000    -1.900000000
C    -0.212000000     0.515000000    -1.444000000
C    -0.447000000     0.924000000    -2.836000000
O    -1.359000000     1.693000000    -3.161000000
O     0.299000000     0.696000000    -3.745000000
