14
-87.42703
C    -0.530000000     0.377000000    -1.303000000
H    -0.981000000     0.671000000    -2.247000000
C    -1.316000000    -0.065000000    -0.219000000
H    -2.402000000    -0.014000000    -0.221000000
C    -0.696000000    -0.381000000     0.997000000
H    -1.213000000    -0.697000000     1.888000000
C     0.659000000    -0.347000000     0.975000000
H     1.224000000    -0.657000000     1.851000000
C     1.476000000     0.035000000    -0.067000000
H     2.542000000     0.129000000     0.127000000
C     0.851000000     0.437000000    -1.256000000
C     1.590000000     0.962000000    -2.456000000
O     1.049000000     1.419000000    -3.469000000
O     2.790000000     1.156000000    -2.269000000
