14
-86.98563
C    -0.859000000     1.186000000    -0.247000000
H    -1.597000000     1.981000000    -0.317000000
C    -1.191000000     0.013000000     0.446000000
H    -2.204000000    -0.059000000     0.834000000
C    -0.273000000    -1.056000000     0.682000000
H    -0.579000000    -1.897000000     1.232000000
C     0.964000000    -0.945000000     0.033000000
H     1.762000000    -1.665000000     0.192000000
C     1.293000000     0.143000000    -0.721000000
H     2.283000000     0.307000000    -1.137000000
C     0.393000000     1.198000000    -0.849000000
C     0.701000000     2.450000000    -1.660000000
O    -0.081000000     3.374000000    -1.897000000
O     1.827000000     2.590000000    -2.137000000
