14
-87.75271
C    -0.836000000     0.636000000    -0.961000000
H    -1.579000000     1.237000000    -1.480000000
C    -1.269000000     0.104000000     0.253000000
H    -2.294000000     0.027000000     0.608000000
C    -0.303000000    -0.429000000     1.086000000
H    -0.677000000    -0.865000000     2.092000000
C     1.014000000    -0.462000000     0.737000000
H     1.680000000    -0.969000000     1.430000000
C     1.407000000     0.056000000    -0.505000000
H     2.465000000    -0.062000000    -0.725000000
C     0.470000000     0.527000000    -1.393000000
C     0.852000000     0.974000000    -2.820000000
O    -0.019000000     1.442000000    -3.539000000
O     2.049000000     1.088000000    -3.092000000
