14
-92.00545
C    -0.291000000     0.982000000    -1.041000000
H    -0.580000000     1.799000000    -1.697000000
C    -0.916000000     0.860000000     0.209000000
H    -1.705000000     1.557000000     0.479000000
C    -0.454000000    -0.060000000     1.131000000
H    -0.883000000    -0.136000000     2.088000000
C     0.508000000    -0.979000000     0.791000000
H     0.772000000    -1.713000000     1.548000000
C     1.084000000    -0.825000000    -0.501000000
H     1.827000000    -1.553000000    -0.815000000
C     0.662000000     0.100000000    -1.424000000
C     1.243000000     0.110000000    -2.811000000
O     0.625000000     0.822000000    -3.611000000
O     2.329000000    -0.459000000    -3.022000000
