14
-85.38189
C    -0.330000000     0.672000000    -1.239000000
H    -0.716000000     1.132000000    -2.145000000
C    -1.227000000     0.119000000    -0.289000000
H    -2.269000000     0.385000000    -0.450000000
C    -0.784000000    -0.481000000     0.857000000
H    -1.393000000    -0.690000000     1.700000000
C     0.604000000    -0.483000000     1.043000000
H     1.035000000    -0.923000000     1.939000000
C     1.488000000     0.077000000     0.166000000
H     2.537000000     0.197000000     0.425000000
C     1.025000000     0.602000000    -1.055000000
C     1.937000000     1.067000000    -2.125000000
O     1.540000000     1.683000000    -3.088000000
O     3.143000000     0.909000000    -2.002000000
