14
-88.45039
C    -0.047000000     0.541000000     1.435000000
H    -0.223000000     0.981000000     2.413000000
C    -1.110000000     0.027000000     0.706000000
H    -2.096000000     0.082000000     1.159000000
C    -0.938000000    -0.545000000    -0.571000000
H    -1.834000000    -0.906000000    -1.127000000
C     0.311000000    -0.521000000    -1.194000000
H     0.516000000    -0.768000000    -2.232000000
C     1.370000000     0.056000000    -0.511000000
H     2.340000000     0.075000000    -1.002000000
C     1.209000000     0.642000000     0.784000000
C     2.477000000     1.101000000     1.524000000
O     2.395000000     1.531000000     2.669000000
O     3.565000000     0.894000000     1.051000000
