14
-90.44956
C    -0.143000000    -0.090000000    -1.441000000
H    -0.379000000    -0.333000000    -2.473000000
C    -0.254000000    -1.137000000    -0.497000000
H    -0.560000000    -2.123000000    -0.835000000
C    -0.051000000    -0.941000000     0.828000000
H    -0.043000000    -1.762000000     1.523000000
C     0.240000000     0.361000000     1.231000000
H     0.322000000     0.562000000     2.296000000
C     0.343000000     1.473000000     0.371000000
H     0.554000000     2.471000000     0.746000000
C     0.126000000     1.222000000    -1.003000000
C     0.171000000     2.293000000    -2.072000000
O     0.102000000     2.044000000    -3.252000000
O     0.318000000     3.461000000    -1.704000000
