14
-89.32503
C     1.097000000    -0.588000000    -0.826000000
H     1.890000000    -1.170000000    -1.287000000
C     1.001000000    -0.630000000     0.596000000
H     1.839000000    -1.095000000     1.108000000
C    -0.106000000    -0.057000000     1.217000000
H    -0.166000000     0.080000000     2.269000000
C    -1.087000000     0.570000000     0.476000000
H    -1.968000000     1.067000000     0.873000000
C    -0.944000000     0.630000000    -0.921000000
H    -1.776000000     1.101000000    -1.438000000
C     0.165000000     0.068000000    -1.582000000
C     0.311000000     0.253000000    -3.020000000
O     1.132000000    -0.400000000    -3.652000000
O    -0.399000000     1.092000000    -3.557000000
