14
-79.41362
C     0.629000000    -0.504000000    -1.219000000
H     1.142000000    -1.022000000    -2.025000000
C     0.273000000    -1.207000000    -0.108000000
H     0.577000000    -2.250000000    -0.158000000
C    -0.278000000    -0.644000000     1.025000000
H    -0.512000000    -1.258000000     1.942000000
C    -0.651000000     0.662000000     0.983000000
H    -1.111000000     1.132000000     1.849000000
C    -0.424000000     1.386000000    -0.218000000
H    -0.728000000     2.430000000    -0.213000000
C     0.349000000     0.854000000    -1.324000000
C     0.707000000     1.684000000    -2.563000000
O     1.246000000     1.172000000    -3.497000000
O     0.773000000     2.884000000    -2.441000000
