14
-87.61683
C    -0.217000000     1.290000000    -0.572000000
H    -0.288000000     2.255000000    -1.067000000
C     0.970000000     0.847000000     0.031000000
H     1.831000000     1.511000000     0.018000000
C     1.046000000    -0.422000000     0.501000000
H     1.974000000    -0.845000000     0.951000000
C    -0.059000000    -1.198000000     0.506000000
H     0.086000000    -2.230000000     0.815000000
C    -1.265000000    -0.697000000    -0.052000000
H    -2.079000000    -1.406000000    -0.177000000
C    -1.444000000     0.589000000    -0.554000000
C    -2.700000000     1.084000000    -1.168000000
O    -3.655000000     0.314000000    -1.368000000
O    -2.741000000     2.321000000    -1.268000000
