14
-79.01393
C     0.288000000    -0.215000000    -1.475000000
H     0.481000000    -0.269000000    -2.543000000
C     0.357000000     1.019000000    -0.777000000
H     0.680000000     1.830000000    -1.425000000
C     0.016000000     1.083000000     0.578000000
H     0.302000000     1.927000000     1.145000000
C    -0.361000000    -0.042000000     1.293000000
H    -0.520000000     0.000000000     2.367000000
C    -0.381000000    -1.276000000     0.637000000
H    -0.849000000    -2.136000000     1.109000000
C    -0.152000000    -1.353000000    -0.764000000
C    -0.110000000    -2.699000000    -1.436000000
O    -0.316000000    -2.736000000    -2.588000000
O     0.062000000    -3.675000000    -0.782000000
