14
-84.63035
C     0.698000000     0.038000000    -1.301000000
H     1.111000000     0.317000000    -2.268000000
C     1.105000000     0.673000000    -0.145000000
H     2.007000000     1.280000000    -0.160000000
C     0.427000000     0.518000000     1.093000000
H     0.780000000     1.010000000     1.907000000
C    -0.657000000    -0.373000000     1.053000000
H    -1.170000000    -0.471000000     2.007000000
C    -1.061000000    -1.018000000    -0.148000000
H    -1.893000000    -1.715000000    -0.089000000
C    -0.431000000    -0.784000000    -1.335000000
C    -1.019000000    -1.188000000    -2.651000000
O    -0.221000000    -1.231000000    -3.563000000
O    -2.124000000    -1.672000000    -2.775000000
