14
-85.53773
C    -0.721000000     0.460000000    -1.249000000
H    -1.300000000     0.844000000    -2.085000000
C    -0.510000000     1.236000000    -0.079000000
H    -1.016000000     2.196000000    -0.034000000
C     0.195000000     0.690000000     0.986000000
H     0.158000000     1.204000000     1.927000000
C     0.787000000    -0.562000000     0.936000000
H     1.332000000    -0.958000000     1.789000000
C     0.662000000    -1.282000000    -0.224000000
H     1.064000000    -2.288000000    -0.135000000
C    -0.056000000    -0.807000000    -1.320000000
C    -0.249000000    -1.669000000    -2.521000000
O    -1.180000000    -1.514000000    -3.284000000
O     0.575000000    -2.513000000    -2.843000000
