14
-83.49768
C     0.955000000    -0.088000000    -1.079000000
H     1.757000000    -0.150000000    -1.810000000
C     1.229000000     0.204000000     0.255000000
H     2.256000000     0.306000000     0.596000000
C     0.269000000     0.326000000     1.164000000
H     0.492000000     0.699000000     2.131000000
C    -1.066000000     0.129000000     0.744000000
H    -1.915000000     0.171000000     1.422000000
C    -1.374000000    -0.292000000    -0.551000000
H    -2.375000000    -0.531000000    -0.899000000
C    -0.372000000    -0.360000000    -1.531000000
C    -0.540000000    -0.707000000    -2.956000000
O     0.283000000    -0.511000000    -3.798000000
O    -1.519000000    -1.409000000    -3.230000000
