14
-85.52623
C    -0.928000000     0.295000000    -1.106000000
H    -1.645000000     0.519000000    -1.893000000
C    -0.844000000     1.005000000     0.118000000
H    -1.525000000     1.814000000     0.368000000
C     0.040000000     0.623000000     1.069000000
H     0.008000000     1.139000000     2.003000000
C     0.978000000    -0.342000000     0.757000000
H     1.591000000    -0.791000000     1.534000000
C     0.950000000    -1.078000000    -0.417000000
H     1.754000000    -1.798000000    -0.549000000
C    -0.026000000    -0.777000000    -1.429000000
C    -0.061000000    -1.470000000    -2.718000000
O    -0.913000000    -1.173000000    -3.573000000
O     0.643000000    -2.457000000    -2.899000000
