14
-83.01709
C     0.132000000     1.391000000     0.038000000
H     0.447000000     2.425000000     0.157000000
C     0.804000000     0.461000000     0.832000000
H     1.514000000     0.700000000     1.620000000
C     0.484000000    -0.860000000     0.718000000
H     0.980000000    -1.584000000     1.235000000
C    -0.532000000    -1.276000000    -0.250000000
H    -0.834000000    -2.315000000    -0.355000000
C    -1.184000000    -0.301000000    -0.988000000
H    -1.863000000    -0.690000000    -1.743000000
C    -0.807000000     1.055000000    -0.844000000
C    -1.152000000     2.175000000    -1.831000000
O    -1.675000000     1.899000000    -2.892000000
O    -0.975000000     3.324000000    -1.507000000
