14
-87.72229
C    -0.431000000     0.351000000    -1.384000000
H    -0.750000000     0.745000000    -2.346000000
C    -0.946000000     1.013000000    -0.237000000
H    -1.671000000     1.808000000    -0.395000000
C    -0.382000000     0.682000000     0.955000000
H    -0.686000000     1.197000000     1.841000000
C     0.584000000    -0.292000000     1.008000000
H     0.906000000    -0.617000000     1.994000000
C     0.997000000    -0.981000000    -0.087000000
H     1.729000000    -1.769000000     0.072000000
C     0.429000000    -0.748000000    -1.339000000
C     0.886000000    -1.630000000    -2.490000000
O     0.776000000    -1.169000000    -3.598000000
O     1.346000000    -2.745000000    -2.276000000
