14
-92.95896
C    -0.964000000    -0.223000000    -1.084000000
H    -1.736000000    -0.394000000    -1.829000000
C    -1.245000000     0.516000000     0.058000000
H    -2.200000000     1.026000000     0.150000000
C    -0.319000000     0.552000000     1.068000000
H    -0.533000000     1.089000000     2.028000000
C     0.946000000     0.014000000     0.839000000
H     1.696000000     0.140000000     1.616000000
C     1.286000000    -0.560000000    -0.366000000
H     2.316000000    -0.878000000    -0.510000000
C     0.316000000    -0.692000000    -1.327000000
C     0.711000000    -1.319000000    -2.667000000
O     0.211000000    -0.875000000    -3.707000000
O     1.400000000    -2.331000000    -2.648000000
