14
-82.70385
C     0.693000000     1.036000000     0.648000000
H     1.215000000     1.748000000     1.282000000
C     0.249000000    -0.113000000     1.271000000
H     0.258000000    -0.341000000     2.334000000
C    -0.247000000    -1.093000000     0.436000000
H    -0.537000000    -2.033000000     0.825000000
C    -0.533000000    -0.826000000    -0.874000000
H    -1.020000000    -1.581000000    -1.486000000
C    -0.051000000     0.390000000    -1.464000000
H    -0.389000000     0.545000000    -2.486000000
C     0.599000000     1.317000000    -0.687000000
C     1.016000000     2.711000000    -1.148000000
O     0.809000000     3.657000000    -0.392000000
O     1.320000000     2.962000000    -2.292000000
