14
-88.84561
C     0.184000000     1.028000000     1.079000000
H     0.387000000     1.753000000     1.864000000
C    -0.013000000    -0.342000000     1.277000000
H    -0.170000000    -0.749000000     2.272000000
C    -0.146000000    -1.208000000     0.167000000
H    -0.381000000    -2.260000000     0.367000000
C    -0.009000000    -0.718000000    -1.070000000
H    -0.101000000    -1.437000000    -1.880000000
C     0.139000000     0.671000000    -1.272000000
H     0.106000000     1.065000000    -2.285000000
C     0.285000000     1.559000000    -0.208000000
C     0.421000000     3.029000000    -0.381000000
O     1.197000000     3.740000000     0.277000000
O    -0.124000000     3.530000000    -1.375000000
