14
-79.61808
C     1.297000000     0.221000000    -0.535000000
H     2.226000000     0.209000000    -1.099000000
C     0.580000000    -0.938000000    -0.503000000
H     0.997000000    -1.836000000    -0.952000000
C    -0.684000000    -1.068000000     0.078000000
H    -1.238000000    -2.008000000    -0.041000000
C    -1.229000000     0.050000000     0.704000000
H    -2.226000000     0.030000000     1.136000000
C    -0.495000000     1.286000000     0.597000000
H    -0.814000000     2.210000000     1.073000000
C     0.804000000     1.375000000     0.079000000
C     1.561000000     2.704000000    -0.033000000
O     2.561000000     2.887000000    -0.691000000
O     1.065000000     3.708000000     0.389000000
