14
-80.94738
C     1.479000000    -0.300000000     0.356000000
H     2.451000000    -0.550000000     0.774000000
C     0.419000000    -1.248000000     0.245000000
H     0.616000000    -2.280000000     0.526000000
C    -0.904000000    -0.819000000    -0.041000000
H    -1.665000000    -1.630000000     0.018000000
C    -1.189000000     0.444000000    -0.424000000
H    -2.200000000     0.684000000    -0.741000000
C    -0.194000000     1.379000000    -0.351000000
H    -0.427000000     2.423000000    -0.544000000
C     1.150000000     1.074000000     0.058000000
C     2.237000000     2.087000000     0.067000000
O     3.310000000     1.789000000     0.537000000
O     2.050000000     3.214000000    -0.263000000
