14
-89.40606
C     0.807000000     0.314000000     1.234000000
H     1.350000000     0.470000000     2.162000000
C     0.532000000    -0.942000000     0.661000000
H     0.839000000    -1.792000000     1.264000000
C    -0.240000000    -1.110000000    -0.454000000
H    -0.494000000    -2.104000000    -0.784000000
C    -0.651000000    -0.025000000    -1.099000000
H    -1.129000000    -0.113000000    -2.071000000
C    -0.383000000     1.256000000    -0.669000000
H    -0.705000000     2.107000000    -1.265000000
C     0.348000000     1.448000000     0.521000000
C     0.545000000     2.817000000     1.045000000
O     0.782000000     3.001000000     2.247000000
O     0.535000000     3.770000000     0.240000000
