14
-86.62281
C     0.857000000     0.126000000     1.202000000
H     1.320000000     0.101000000     2.185000000
C     0.197000000    -1.038000000     0.798000000
H     0.294000000    -1.950000000     1.380000000
C    -0.577000000    -1.027000000    -0.304000000
H    -1.066000000    -1.981000000    -0.591000000
C    -0.695000000     0.155000000    -1.052000000
H    -1.233000000     0.093000000    -1.994000000
C     0.028000000     1.242000000    -0.717000000
H    -0.071000000     2.136000000    -1.328000000
C     0.807000000     1.304000000     0.407000000
C     1.503000000     2.590000000     0.742000000
O     2.530000000     2.434000000     1.392000000
O     1.256000000     3.627000000     0.093000000
