14
-87.38207
C    -0.418000000     1.411000000     0.165000000
H    -0.620000000     2.451000000     0.407000000
C     0.028000000     0.581000000     1.160000000
H     0.296000000     0.997000000     2.128000000
C     0.483000000    -0.727000000     0.848000000
H     1.107000000    -1.318000000     1.627000000
C     0.361000000    -1.242000000    -0.477000000
H     0.686000000    -2.267000000    -0.637000000
C    -0.296000000    -0.416000000    -1.434000000
H    -0.581000000    -0.914000000    -2.357000000
C    -0.635000000     0.885000000    -1.093000000
C    -1.235000000     1.840000000    -2.118000000
O    -1.343000000     1.491000000    -3.321000000
O    -1.660000000     2.931000000    -1.775000000
