14
-85.89147
C     1.118000000    -0.867000000    -0.263000000
H     1.824000000    -1.678000000    -0.424000000
C    -0.174000000    -1.295000000    -0.242000000
H    -0.529000000    -2.314000000    -0.367000000
C    -1.133000000    -0.391000000     0.155000000
H    -2.092000000    -0.819000000     0.290000000
C    -0.849000000     0.970000000     0.290000000
H    -1.563000000     1.700000000     0.663000000
C     0.441000000     1.465000000     0.081000000
H     0.641000000     2.529000000     0.168000000
C     1.492000000     0.518000000    -0.141000000
C     2.899000000     0.909000000    -0.470000000
O     3.881000000     0.222000000    -0.210000000
O     2.989000000     2.055000000    -0.908000000
