14
-87.55556
C     1.451000000    -0.455000000     0.257000000
H     2.468000000    -0.816000000     0.389000000
C     0.296000000    -1.291000000     0.345000000
H     0.352000000    -2.354000000     0.568000000
C    -0.949000000    -0.769000000     0.072000000
H    -1.874000000    -1.297000000     0.068000000
C    -1.113000000     0.551000000    -0.255000000
H    -2.113000000     0.966000000    -0.351000000
C     0.008000000     1.396000000    -0.355000000
H    -0.239000000     2.427000000    -0.598000000
C     1.292000000     0.893000000    -0.083000000
C     2.494000000     1.850000000    -0.238000000
O     3.568000000     1.578000000     0.227000000
O     2.328000000     2.836000000    -0.894000000
