14
-79.38305
C     1.399000000     0.488000000    -0.082000000
H     2.462000000     0.590000000    -0.284000000
C     0.918000000    -0.479000000     0.766000000
H     1.702000000    -1.018000000     1.292000000
C    -0.436000000    -0.815000000     0.872000000
H    -0.615000000    -1.760000000     1.425000000
C    -1.270000000    -0.219000000    -0.015000000
H    -2.280000000    -0.597000000    -0.149000000
C    -0.898000000     0.913000000    -0.688000000
H    -1.685000000     1.453000000    -1.209000000
C     0.474000000     1.269000000    -0.811000000
C     0.956000000     2.339000000    -1.738000000
O     2.071000000     2.249000000    -2.168000000
O     0.181000000     3.117000000    -2.318000000
