14
-89.35241
C    -0.575000000     1.342000000    -0.143000000
H    -1.054000000     2.317000000    -0.119000000
C     0.555000000     1.088000000     0.596000000
H     0.964000000     1.855000000     1.249000000
C     1.089000000    -0.220000000     0.539000000
H     1.992000000    -0.448000000     1.141000000
C     0.403000000    -1.228000000    -0.102000000
H     0.867000000    -2.209000000    -0.031000000
C    -0.759000000    -0.927000000    -0.804000000
H    -1.344000000    -1.728000000    -1.249000000
C    -1.269000000     0.346000000    -0.876000000
C    -2.501000000     0.640000000    -1.678000000
O    -2.603000000     0.055000000    -2.742000000
O    -3.142000000     1.666000000    -1.441000000
