14
-87.52641
C     1.013000000    -0.995000000     0.315000000
H     1.678000000    -1.852000000     0.381000000
C    -0.192000000    -1.262000000    -0.353000000
H    -0.513000000    -2.229000000    -0.731000000
C    -1.056000000    -0.228000000    -0.621000000
H    -1.955000000    -0.416000000    -1.207000000
C    -0.782000000     1.077000000    -0.082000000
H    -1.513000000     1.864000000    -0.246000000
C     0.350000000     1.224000000     0.718000000
H     0.535000000     2.168000000     1.223000000
C     1.357000000     0.259000000     0.871000000
C     2.710000000     0.563000000     1.445000000
O     3.634000000    -0.234000000     1.394000000
O     2.859000000     1.572000000     2.134000000
