14
-85.73081
C     1.127000000    -0.895000000     0.436000000
H     1.883000000    -1.646000000     0.651000000
C    -0.108000000    -1.300000000    -0.165000000
H    -0.380000000    -2.344000000    -0.295000000
C    -1.070000000    -0.366000000    -0.509000000
H    -2.108000000    -0.620000000    -0.827000000
C    -0.782000000     0.998000000    -0.249000000
H    -1.556000000     1.746000000    -0.403000000
C     0.428000000     1.436000000     0.265000000
H     0.758000000     2.463000000     0.394000000
C     1.366000000     0.485000000     0.676000000
C     2.678000000     0.916000000     1.271000000
O     3.669000000     0.312000000     0.958000000
O     2.662000000     1.789000000     2.062000000
