14
-90.07268
C     1.323000000    -0.611000000    -0.142000000
H     2.263000000    -1.154000000    -0.078000000
C     0.125000000    -1.218000000    -0.515000000
H     0.129000000    -2.217000000    -0.943000000
C    -1.087000000    -0.563000000    -0.341000000
H    -2.001000000    -1.029000000    -0.641000000
C    -1.032000000     0.764000000     0.159000000
H    -1.936000000     1.312000000     0.409000000
C     0.181000000     1.359000000     0.533000000
H     0.301000000     2.363000000     0.933000000
C     1.340000000     0.660000000     0.437000000
C     2.617000000     1.321000000     0.754000000
O     3.676000000     0.872000000     0.344000000
O     2.528000000     2.391000000     1.347000000
