14
-83.07831
C    -0.878000000     0.264000000    -1.219000000
H    -1.465000000     0.268000000    -2.133000000
C     0.017000000    -0.834000000    -1.047000000
H     0.121000000    -1.623000000    -1.788000000
C     0.871000000    -0.850000000     0.053000000
H     1.539000000    -1.694000000     0.238000000
C     0.781000000     0.185000000     1.032000000
H     1.464000000     0.021000000     1.861000000
C    -0.108000000     1.173000000     0.841000000
H    -0.220000000     1.851000000     1.684000000
C    -0.983000000     1.296000000    -0.274000000
C    -2.051000000     2.297000000    -0.302000000
O    -2.720000000     2.336000000    -1.293000000
O    -2.353000000     3.063000000     0.624000000
