14
-85.87998
C    -0.834000000     1.157000000     0.479000000
H    -1.307000000     2.059000000     0.859000000
C     0.189000000     0.573000000     1.205000000
H     0.469000000     0.952000000     2.184000000
C     0.919000000    -0.502000000     0.692000000
H     1.658000000    -0.881000000     1.311000000
C     0.516000000    -1.036000000    -0.572000000
H     1.036000000    -1.831000000    -1.099000000
C    -0.592000000    -0.554000000    -1.249000000
H    -0.894000000    -0.992000000    -2.197000000
C    -1.263000000     0.581000000    -0.707000000
C    -2.396000000     1.162000000    -1.510000000
O    -2.848000000     0.531000000    -2.434000000
O    -2.717000000     2.344000000    -1.443000000
