14
-85.31332
C    -0.876000000     1.150000000    -0.229000000
H    -1.340000000     2.091000000    -0.512000000
C     0.113000000     1.108000000     0.683000000
H     0.357000000     2.005000000     1.245000000
C     0.786000000    -0.154000000     0.928000000
H     1.552000000    -0.287000000     1.628000000
C     0.387000000    -1.212000000     0.228000000
H     0.927000000    -2.141000000     0.391000000
C    -0.506000000    -1.113000000    -0.828000000
H    -0.738000000    -1.995000000    -1.419000000
C    -1.170000000     0.074000000    -1.055000000
C    -1.942000000     0.293000000    -2.399000000
O    -1.782000000    -0.532000000    -3.312000000
O    -2.397000000     1.407000000    -2.580000000
