14
-82.80793
C     0.908000000     1.190000000    -0.056000000
H     1.438000000     2.133000000    -0.159000000
C     0.918000000     0.224000000    -1.006000000
H     1.357000000     0.380000000    -1.989000000
C     0.043000000    -0.888000000    -0.884000000
H     0.051000000    -1.598000000    -1.698000000
C    -0.658000000    -0.976000000     0.320000000
H    -1.244000000    -1.869000000     0.518000000
C    -0.625000000    -0.051000000     1.300000000
H    -1.175000000    -0.288000000     2.207000000
C     0.115000000     1.119000000     1.090000000
C     0.045000000     2.244000000     2.083000000
O     0.807000000     3.169000000     2.084000000
O    -0.854000000     2.209000000     2.885000000
