14
-91.72511
C    -0.090000000     1.474000000    -0.385000000
H    -0.086000000     2.500000000    -0.743000000
C     0.528000000     0.463000000    -1.169000000
H     0.993000000     0.715000000    -2.119000000
C     0.486000000    -0.859000000    -0.741000000
H     1.003000000    -1.673000000    -1.292000000
C    -0.124000000    -1.198000000     0.473000000
H    -0.288000000    -2.220000000     0.805000000
C    -0.698000000    -0.194000000     1.222000000
H    -1.182000000    -0.475000000     2.154000000
C    -0.660000000     1.169000000     0.855000000
C    -1.198000000     2.200000000     1.747000000
O    -1.197000000     3.331000000     1.377000000
O    -1.696000000     1.826000000     2.840000000
