14
-78.41193
C    -0.402000000     0.946000000    -1.040000000
H    -0.766000000     1.573000000    -1.850000000
C    -0.748000000    -0.390000000    -0.985000000
H    -1.476000000    -0.764000000    -1.699000000
C    -0.267000000    -1.190000000     0.007000000
H    -0.495000000    -2.259000000     0.056000000
C     0.633000000    -0.628000000     1.011000000
H     1.067000000    -1.232000000     1.804000000
C     0.892000000     0.738000000     0.958000000
H     1.450000000     1.190000000     1.775000000
C     0.336000000     1.515000000    -0.039000000
C     0.581000000     3.040000000     0.022000000
O    -0.232000000     3.755000000    -0.386000000
O     1.464000000     3.503000000     0.707000000
