14
-85.74311
C     0.080000000     0.485000000    -1.487000000
H     0.303000000     0.775000000    -2.510000000
C    -0.073000000    -0.839000000    -1.108000000
H    -0.080000000    -1.606000000    -1.878000000
C    -0.200000000    -1.205000000     0.288000000
H    -0.310000000    -2.219000000     0.645000000
C    -0.305000000    -0.176000000     1.238000000
H    -0.441000000    -0.472000000     2.275000000
C    -0.168000000     1.133000000     0.853000000
H    -0.081000000     1.893000000     1.625000000
C     0.045000000     1.534000000    -0.468000000
C     0.307000000     2.929000000    -0.817000000
O     0.292000000     3.319000000    -1.960000000
O     0.756000000     3.670000000     0.052000000
