14
-87.10570
C     1.305000000     0.522000000    -0.629000000
H     2.145000000     0.798000000    -1.260000000
C     0.857000000    -0.817000000    -0.633000000
H     1.535000000    -1.596000000    -0.972000000
C    -0.309000000    -1.183000000     0.063000000
H    -0.538000000    -2.235000000     0.070000000
C    -1.173000000    -0.204000000     0.575000000
H    -2.071000000    -0.500000000     1.110000000
C    -0.742000000     1.111000000     0.587000000
H    -1.361000000     1.886000000     1.031000000
C     0.436000000     1.501000000    -0.039000000
C     0.646000000     2.946000000    -0.327000000
O     1.343000000     3.309000000    -1.264000000
O     0.168000000     3.856000000     0.388000000
