14
-89.01894
C     1.311000000     0.645000000    -0.512000000
H     2.228000000     1.100000000    -0.878000000
C     1.108000000    -0.714000000    -0.274000000
H     1.862000000    -1.378000000    -0.687000000
C    -0.093000000    -1.233000000     0.133000000
H    -0.273000000    -2.286000000     0.221000000
C    -1.055000000    -0.348000000     0.602000000
H    -1.944000000    -0.820000000     1.012000000
C    -0.912000000     1.013000000     0.562000000
H    -1.737000000     1.664000000     0.839000000
C     0.283000000     1.520000000     0.001000000
C     0.360000000     3.046000000    -0.144000000
O     1.361000000     3.580000000    -0.649000000
O    -0.584000000     3.719000000     0.214000000
