14
-89.25558
C     0.763000000     0.604000000     1.151000000
H     1.284000000     1.112000000     1.958000000
C     0.820000000    -0.734000000     0.818000000
H     1.558000000    -1.310000000     1.370000000
C     0.047000000    -1.225000000    -0.214000000
H     0.065000000    -2.300000000    -0.400000000
C    -0.761000000    -0.433000000    -0.923000000
H    -1.395000000    -0.833000000    -1.710000000
C    -0.911000000     0.929000000    -0.546000000
H    -1.637000000     1.598000000    -1.001000000
C    -0.105000000     1.430000000     0.411000000
C    -0.261000000     2.907000000     0.745000000
O     0.213000000     3.320000000     1.797000000
O    -0.884000000     3.698000000     0.015000000
