14
-87.11929
C    -0.943000000     0.161000000     1.145000000
H    -1.518000000     0.159000000     2.067000000
C    -0.426000000    -1.108000000     0.714000000
H    -0.731000000    -2.045000000     1.174000000
C     0.465000000    -1.075000000    -0.327000000
H     0.970000000    -2.022000000    -0.679000000
C     0.795000000     0.109000000    -0.959000000
H     1.490000000     0.079000000    -1.795000000
C     0.288000000     1.344000000    -0.613000000
H     0.688000000     2.246000000    -1.071000000
C    -0.647000000     1.383000000     0.409000000
C    -1.280000000     2.728000000     0.782000000
O    -1.980000000     2.772000000     1.805000000
O    -1.099000000     3.716000000     0.132000000
