14
-83.60443
C     0.311000000     0.428000000     1.334000000
H     0.616000000     0.758000000     2.324000000
C     1.120000000     0.552000000     0.268000000
H     2.108000000     1.004000000     0.293000000
C     0.668000000     0.230000000    -0.974000000
H     1.158000000     0.634000000    -1.780000000
C    -0.565000000    -0.337000000    -1.105000000
H    -0.902000000    -0.589000000    -2.108000000
C    -1.326000000    -0.631000000    -0.019000000
H    -2.265000000    -1.138000000    -0.227000000
C    -0.937000000    -0.178000000     1.269000000
C    -1.926000000    -0.192000000     2.451000000
O    -1.561000000    -0.082000000     3.618000000
O    -3.069000000    -0.492000000     2.145000000
