14
-83.33813
C    -1.151000000    -0.241000000     0.802000000
H    -1.879000000    -0.615000000     1.517000000
C    -0.260000000    -1.206000000     0.401000000
H    -0.465000000    -2.243000000     0.656000000
C     0.724000000    -0.884000000    -0.443000000
H     1.370000000    -1.655000000    -0.892000000
C     0.904000000     0.463000000    -0.867000000
H     1.661000000     0.717000000    -1.605000000
C    -0.134000000     1.431000000    -0.535000000
H     0.013000000     2.470000000    -0.818000000
C    -1.106000000     1.107000000     0.388000000
C    -2.036000000     2.107000000     0.935000000
O    -2.657000000     1.830000000     1.931000000
O    -2.062000000     3.282000000     0.472000000
