14
-90.05821
C     0.336000000     1.383000000     0.510000000
H     0.426000000     2.434000000     0.769000000
C     0.478000000     0.909000000    -0.787000000
H     0.751000000     1.616000000    -1.566000000
C     0.165000000    -0.398000000    -1.192000000
H     0.103000000    -0.764000000    -2.225000000
C    -0.221000000    -1.314000000    -0.203000000
H    -0.353000000    -2.331000000    -0.563000000
C    -0.307000000    -0.885000000     1.139000000
H    -0.500000000    -1.612000000     1.923000000
C    -0.104000000     0.463000000     1.475000000
C    -0.357000000     0.864000000     2.871000000
O    -0.665000000     2.027000000     3.126000000
O     0.098000000     0.056000000     3.740000000
