14
-87.56871
C     0.406000000     1.396000000     0.343000000
H     0.858000000     2.380000000     0.429000000
C     0.149000000     0.948000000    -0.971000000
H     0.240000000     1.614000000    -1.824000000
C    -0.142000000    -0.416000000    -1.162000000
H    -0.250000000    -0.685000000    -2.182000000
C    -0.415000000    -1.212000000    -0.054000000
H    -0.536000000    -2.277000000    -0.232000000
C    -0.297000000    -0.682000000     1.265000000
H    -0.355000000    -1.366000000     2.107000000
C     0.165000000     0.605000000     1.467000000
C     0.393000000     1.046000000     2.880000000
O     1.150000000     1.998000000     3.068000000
O    -0.068000000     0.461000000     3.825000000
