14
-92.07290
C     0.813000000     1.241000000    -0.128000000
H     1.424000000     2.121000000    -0.313000000
C    -0.143000000     0.782000000    -1.032000000
H    -0.333000000     1.330000000    -1.951000000
C    -0.816000000    -0.412000000    -0.835000000
H    -1.554000000    -0.770000000    -1.579000000
C    -0.582000000    -1.132000000     0.334000000
H    -1.045000000    -2.100000000     0.507000000
C     0.348000000    -0.727000000     1.245000000
H     0.456000000    -1.335000000     2.140000000
C     1.077000000     0.491000000     1.025000000
C     2.021000000     0.969000000     2.087000000
O     2.547000000     2.073000000     1.894000000
O     2.274000000     0.348000000     3.099000000
