14
-84.46333
C     1.323000000     0.593000000    -0.209000000
H     2.307000000     0.944000000    -0.510000000
C     0.291000000     0.625000000    -1.153000000
H     0.477000000     1.129000000    -2.098000000
C    -0.917000000    -0.046000000    -0.867000000
H    -1.771000000    -0.058000000    -1.473000000
C    -1.137000000    -0.513000000     0.447000000
H    -2.063000000    -1.025000000     0.693000000
C    -0.129000000    -0.359000000     1.424000000
H    -0.241000000    -0.856000000     2.384000000
C     1.093000000     0.132000000     1.065000000
C     2.237000000     0.230000000     2.050000000
O     3.229000000     0.869000000     1.882000000
O     2.186000000    -0.464000000     3.066000000
