14
-85.69015
C     0.575000000    -1.041000000    -0.920000000
H     0.959000000    -1.723000000    -1.674000000
C    -0.134000000     0.104000000    -1.286000000
H    -0.258000000     0.452000000    -2.309000000
C    -0.620000000     0.994000000    -0.357000000
H    -1.207000000     1.923000000    -0.663000000
C    -0.411000000     0.733000000     0.994000000
H    -0.762000000     1.499000000     1.681000000
C     0.381000000    -0.308000000     1.365000000
H     0.594000000    -0.330000000     2.431000000
C     0.899000000    -1.206000000     0.439000000
C     1.802000000    -2.336000000     0.914000000
O     2.154000000    -3.273000000     0.261000000
O     2.276000000    -2.222000000     2.063000000
