14
-75.36396
C     0.461000000    -1.220000000    -0.595000000
H     0.581000000    -2.113000000    -1.203000000
C    -0.679000000    -0.516000000    -0.868000000
H    -1.328000000    -0.812000000    -1.688000000
C    -1.107000000     0.625000000    -0.103000000
H    -1.991000000     1.221000000    -0.445000000
C    -0.261000000     1.046000000     0.927000000
H    -0.613000000     1.944000000     1.430000000
C     0.947000000     0.360000000     1.161000000
H     1.768000000     0.623000000     1.822000000
C     1.331000000    -0.776000000     0.388000000
C     2.630000000    -1.511000000     0.597000000
O     2.993000000    -2.446000000    -0.125000000
O     3.536000000    -0.974000000     1.164000000
