14
-90.88023
C     0.347000000    -1.025000000    -1.001000000
H     0.665000000    -1.749000000    -1.746000000
C    -0.583000000    -0.026000000    -1.169000000
H    -1.095000000     0.013000000    -2.127000000
C    -0.963000000     0.827000000    -0.127000000
H    -1.698000000     1.586000000    -0.275000000
C    -0.240000000     0.712000000     1.047000000
H    -0.560000000     1.340000000     1.875000000
C     0.623000000    -0.377000000     1.276000000
H     1.133000000    -0.463000000     2.232000000
C     1.011000000    -1.241000000     0.237000000
C     2.170000000    -2.151000000     0.295000000
O     2.669000000    -2.555000000    -0.753000000
O     2.544000000    -2.527000000     1.419000000
