14
-87.41047
C    -0.933000000    -0.743000000    -0.805000000
H    -1.525000000    -1.458000000    -1.371000000
C    -0.484000000    -1.116000000     0.453000000
H    -0.788000000    -2.065000000     0.889000000
C     0.234000000    -0.195000000     1.178000000
H     0.583000000    -0.396000000     2.170000000
C     0.729000000     0.955000000     0.567000000
H     1.403000000     1.525000000     1.201000000
C     0.470000000     1.166000000    -0.763000000
H     0.936000000     2.044000000    -1.203000000
C    -0.429000000     0.377000000    -1.516000000
C    -0.680000000     0.604000000    -2.982000000
O    -1.281000000    -0.213000000    -3.690000000
O    -0.291000000     1.645000000    -3.452000000
