14
-87.96447
C     0.060000000    -0.540000000    -1.372000000
H    -0.002000000    -0.965000000    -2.371000000
C    -0.362000000    -1.185000000    -0.207000000
H    -0.639000000    -2.235000000    -0.251000000
C    -0.309000000    -0.572000000     1.027000000
H    -0.597000000    -1.074000000     1.919000000
C     0.074000000     0.750000000     1.156000000
H     0.102000000     1.273000000     2.108000000
C     0.434000000     1.430000000    -0.011000000
H     0.761000000     2.466000000    -0.006000000
C     0.406000000     0.816000000    -1.253000000
C     0.787000000     1.495000000    -2.480000000
O     0.319000000     1.010000000    -3.498000000
O     1.448000000     2.535000000    -2.589000000
