14
-90.96386
C    -0.509000000     0.013000000    -1.385000000
H    -1.026000000    -0.106000000    -2.334000000
C    -1.302000000    -0.260000000    -0.258000000
H    -2.355000000    -0.530000000    -0.278000000
C    -0.679000000    -0.171000000     0.985000000
H    -1.249000000    -0.198000000     1.910000000
C     0.649000000     0.118000000     1.102000000
H     1.103000000     0.227000000     2.083000000
C     1.462000000     0.365000000    -0.033000000
H     2.534000000     0.388000000     0.147000000
C     0.864000000     0.263000000    -1.275000000
C     1.639000000     0.433000000    -2.543000000
O     1.209000000     0.008000000    -3.629000000
O     2.797000000     0.842000000    -2.421000000
