14
-90.93902
C    -0.433000000    -0.444000000    -1.314000000
H    -0.807000000    -0.789000000    -2.274000000
C    -1.228000000    -0.394000000    -0.179000000
H    -2.288000000    -0.632000000    -0.206000000
C    -0.702000000     0.051000000     1.023000000
H    -1.322000000     0.198000000     1.945000000
C     0.611000000     0.376000000     1.081000000
H     1.035000000     0.737000000     2.014000000
C     1.437000000     0.386000000    -0.069000000
H     2.484000000     0.675000000    -0.027000000
C     0.881000000     0.013000000    -1.303000000
C     1.807000000     0.081000000    -2.473000000
O     1.554000000    -0.510000000    -3.504000000
O     2.839000000     0.802000000    -2.434000000
