14
-85.81844
C    -0.796000000    -0.211000000    -1.253000000
H    -1.380000000    -0.454000000    -2.137000000
C    -0.243000000    -1.193000000    -0.457000000
H    -0.181000000    -2.224000000    -0.795000000
C     0.406000000    -0.880000000     0.741000000
H     0.819000000    -1.706000000     1.288000000
C     0.548000000     0.462000000     1.118000000
H     1.080000000     0.793000000     2.006000000
C    -0.087000000     1.457000000     0.317000000
H     0.032000000     2.479000000     0.666000000
C    -0.595000000     1.128000000    -0.916000000
C    -1.162000000     2.192000000    -1.802000000
O    -1.496000000     1.944000000    -2.951000000
O    -1.095000000     3.316000000    -1.424000000
