14
-82.98064
C    -0.075000000    -1.234000000    -0.827000000
H    -0.265000000    -2.192000000    -1.306000000
C    -0.787000000    -1.014000000     0.403000000
H    -1.312000000    -1.842000000     0.874000000
C    -0.678000000     0.205000000     1.017000000
H    -1.144000000     0.301000000     2.057000000
C     0.215000000     1.155000000     0.527000000
H     0.465000000     2.067000000     1.063000000
C     0.967000000     0.939000000    -0.684000000
H     1.714000000     1.646000000    -1.034000000
C     0.792000000    -0.223000000    -1.330000000
C     1.413000000    -0.377000000    -2.700000000
O     1.020000000    -1.167000000    -3.479000000
O     2.389000000     0.372000000    -3.001000000
