14
-88.78403
C    -0.228000000    -0.169000000    -1.448000000
H    -0.235000000    -0.265000000    -2.531000000
C     0.770000000    -0.763000000    -0.714000000
H     1.548000000    -1.332000000    -1.216000000
C     0.831000000    -0.684000000     0.684000000
H     1.562000000    -1.229000000     1.279000000
C    -0.054000000     0.183000000     1.235000000
H     0.085000000     0.288000000     2.308000000
C    -0.925000000     0.991000000     0.508000000
H    -1.590000000     1.699000000     0.996000000
C    -1.122000000     0.705000000    -0.848000000
C    -2.288000000     1.357000000    -1.631000000
O    -2.445000000     1.107000000    -2.806000000
O    -3.087000000     2.032000000    -1.007000000
