14
-87.22689
C    -0.629000000     0.062000000    -1.296000000
H    -0.968000000     0.151000000    -2.325000000
C     0.258000000    -0.891000000    -0.921000000
H     0.728000000    -1.604000000    -1.595000000
C     0.823000000    -0.861000000     0.349000000
H     1.657000000    -1.505000000     0.577000000
C     0.424000000     0.141000000     1.303000000
H     0.962000000     0.359000000     2.222000000
C    -0.594000000     1.016000000     0.912000000
H    -0.922000000     1.658000000     1.726000000
C    -1.083000000     1.026000000    -0.364000000
C    -2.001000000     2.151000000    -0.846000000
O    -2.535000000     2.044000000    -1.899000000
O    -2.186000000     3.133000000    -0.095000000
