14
-90.27921
C    -0.591000000    -0.182000000    -1.360000000
H    -1.022000000    -0.466000000    -2.317000000
C     0.234000000    -1.107000000    -0.701000000
H     0.526000000    -2.081000000    -1.085000000
C     0.633000000    -0.814000000     0.601000000
H     1.410000000    -1.462000000     1.013000000
C     0.222000000     0.330000000     1.255000000
H     0.609000000     0.499000000     2.257000000
C    -0.495000000     1.294000000     0.573000000
H    -0.675000000     2.243000000     1.071000000
C    -0.855000000     1.101000000    -0.765000000
C    -1.566000000     2.185000000    -1.531000000
O    -1.741000000     2.012000000    -2.717000000
O    -1.792000000     3.272000000    -0.992000000
