14
-82.23567
C     0.131000000     0.530000000     1.360000000
H     0.028000000     1.069000000     2.298000000
C    -1.049000000     0.553000000     0.604000000
H    -1.963000000     1.089000000     0.848000000
C    -1.035000000     0.030000000    -0.636000000
H    -1.983000000     0.143000000    -1.198000000
C     0.122000000    -0.556000000    -1.176000000
H     0.076000000    -1.011000000    -2.162000000
C     1.261000000    -0.663000000    -0.412000000
H     2.106000000    -1.273000000    -0.718000000
C     1.318000000     0.029000000     0.816000000
C     2.626000000     0.044000000     1.582000000
O     2.621000000     0.262000000     2.752000000
O     3.723000000    -0.143000000     1.048000000
