14
-92.31751
C    -1.335000000     0.196000000    -0.546000000
H    -2.313000000     0.292000000    -1.009000000
C    -0.441000000    -0.756000000    -1.062000000
H    -0.842000000    -1.501000000    -1.744000000
C     0.842000000    -0.787000000    -0.449000000
H     1.574000000    -1.449000000    -0.824000000
C     1.200000000     0.147000000     0.526000000
H     2.154000000     0.085000000     1.043000000
C     0.286000000     1.032000000     1.075000000
H     0.523000000     1.640000000     1.945000000
C    -1.020000000     1.041000000     0.516000000
C    -2.123000000     1.922000000     1.125000000
O    -3.288000000     1.756000000     0.842000000
O    -1.737000000     2.874000000     1.841000000
