14
-87.77814
C    -1.176000000     0.941000000     0.352000000
H    -2.027000000     1.538000000     0.670000000
C    -1.228000000    -0.452000000     0.065000000
H    -2.168000000    -0.982000000     0.197000000
C    -0.123000000    -1.253000000    -0.282000000
H    -0.239000000    -2.292000000    -0.445000000
C     1.030000000    -0.548000000    -0.530000000
H     1.880000000    -1.019000000    -1.016000000
C     1.117000000     0.823000000    -0.274000000
H     2.047000000     1.350000000    -0.469000000
C     0.092000000     1.543000000     0.336000000
C     0.372000000     3.020000000     0.716000000
O    -0.485000000     3.753000000     1.138000000
O     1.508000000     3.399000000     0.550000000
