14
-87.14508
C     0.958000000    -0.050000000     1.165000000
H     1.692000000     0.019000000     1.963000000
C     0.708000000     1.051000000     0.328000000
H     1.077000000     2.050000000     0.546000000
C    -0.152000000     0.996000000    -0.720000000
H    -0.367000000     1.856000000    -1.385000000
C    -0.824000000    -0.257000000    -0.924000000
H    -1.443000000    -0.342000000    -1.814000000
C    -0.541000000    -1.391000000    -0.160000000
H    -1.122000000    -2.260000000    -0.460000000
C     0.340000000    -1.293000000     0.917000000
C     0.541000000    -2.563000000     1.675000000
O     1.138000000    -2.506000000     2.711000000
O     0.097000000    -3.632000000     1.248000000
