14
-82.85583
C     0.488000000    -0.777000000     1.108000000
H     1.045000000    -1.243000000     1.917000000
C     0.814000000     0.562000000     0.806000000
H     1.474000000     1.084000000     1.494000000
C     0.301000000     1.145000000    -0.327000000
H     0.376000000     2.236000000    -0.465000000
C    -0.657000000     0.489000000    -1.081000000
H    -1.146000000     0.971000000    -1.924000000
C    -0.983000000    -0.879000000    -0.787000000
H    -1.697000000    -1.297000000    -1.491000000
C    -0.349000000    -1.512000000     0.302000000
C    -0.750000000    -2.915000000     0.751000000
O    -0.473000000    -3.281000000     1.834000000
O    -1.375000000    -3.655000000     0.010000000
