14
-82.64812
C     1.158000000    -0.185000000     0.943000000
H     2.048000000    -0.399000000     1.530000000
C     1.209000000     0.180000000    -0.420000000
H     2.165000000     0.211000000    -0.937000000
C     0.069000000     0.351000000    -1.142000000
H     0.193000000     0.416000000    -2.195000000
C    -1.155000000     0.227000000    -0.537000000
H    -1.992000000     0.348000000    -1.219000000
C    -1.236000000    -0.075000000     0.806000000
H    -2.219000000    -0.122000000     1.267000000
C    -0.077000000    -0.391000000     1.545000000
C    -0.069000000    -0.908000000     2.888000000
O     1.013000000    -1.270000000     3.449000000
O    -1.092000000    -1.104000000     3.455000000
