14
-82.54861
C     0.711000000    -0.792000000     1.053000000
H     1.301000000    -1.480000000     1.654000000
C     1.246000000    -0.025000000     0.034000000
H     2.320000000     0.084000000    -0.093000000
C     0.484000000     0.780000000    -0.801000000
H     0.911000000     1.342000000    -1.627000000
C    -0.894000000     0.758000000    -0.772000000
H    -1.531000000     1.165000000    -1.553000000
C    -1.453000000    -0.074000000     0.221000000
H    -2.506000000    -0.341000000     0.187000000
C    -0.657000000    -0.837000000     1.162000000
C    -1.383000000    -1.731000000     2.114000000
O    -0.701000000    -2.495000000     2.817000000
O    -2.535000000    -2.010000000     1.876000000
