14
-88.75319
C     0.683000000    -0.415000000     1.283000000
H     1.310000000    -0.700000000     2.124000000
C     1.269000000    -0.027000000     0.066000000
H     2.344000000    -0.039000000    -0.096000000
C     0.534000000     0.382000000    -1.033000000
H     1.101000000     0.670000000    -1.879000000
C    -0.829000000     0.407000000    -0.941000000
H    -1.466000000     0.758000000    -1.749000000
C    -1.501000000     0.007000000     0.252000000
H    -2.586000000    -0.051000000     0.290000000
C    -0.733000000    -0.435000000     1.325000000
C    -1.420000000    -0.857000000     2.602000000
O    -0.824000000    -1.012000000     3.702000000
O    -2.631000000    -0.984000000     2.654000000
