14
-83.45075
C     1.238000000    -0.799000000     0.325000000
H     2.224000000    -1.207000000     0.536000000
C     1.008000000    -0.093000000    -0.861000000
H     1.835000000    -0.087000000    -1.567000000
C    -0.165000000     0.637000000    -1.056000000
H    -0.365000000     1.141000000    -1.874000000
C    -1.203000000     0.527000000    -0.166000000
H    -2.144000000     1.028000000    -0.382000000
C    -0.957000000    -0.135000000     1.042000000
H    -1.705000000    -0.108000000     1.831000000
C     0.217000000    -0.799000000     1.333000000
C     0.483000000    -1.488000000     2.683000000
O     1.634000000    -1.864000000     2.962000000
O    -0.319000000    -1.553000000     3.593000000
