14
-90.79976
C     1.365000000    -0.544000000     0.484000000
H     2.362000000    -0.895000000     0.738000000
C     1.088000000    -0.186000000    -0.829000000
H     1.856000000    -0.200000000    -1.598000000
C    -0.238000000     0.206000000    -1.167000000
H    -0.400000000     0.449000000    -2.208000000
C    -1.212000000     0.451000000    -0.179000000
H    -2.186000000     0.881000000    -0.400000000
C    -0.907000000     0.112000000     1.151000000
H    -1.751000000     0.076000000     1.834000000
C     0.372000000    -0.405000000     1.487000000
C     0.568000000    -0.938000000     2.933000000
O     1.542000000    -1.599000000     3.144000000
O    -0.347000000    -0.789000000     3.729000000
