14
-80.38091
C    -1.474000000     0.374000000     0.374000000
H    -2.385000000     0.763000000     0.821000000
C    -0.326000000     0.433000000     1.229000000
H    -0.451000000     0.616000000     2.293000000
C     0.952000000     0.147000000     0.731000000
H     1.784000000     0.296000000     1.381000000
C     1.181000000    -0.198000000    -0.578000000
H     2.183000000    -0.377000000    -0.958000000
C     0.028000000    -0.484000000    -1.338000000
H     0.266000000    -0.503000000    -2.399000000
C    -1.293000000    -0.128000000    -0.933000000
C    -2.410000000    -0.229000000    -1.905000000
O    -2.183000000    -0.592000000    -3.037000000
O    -3.516000000     0.126000000    -1.590000000
