14
-82.72157
C     1.232000000    -0.497000000     0.616000000
H     2.202000000    -0.706000000     1.061000000
C     1.145000000     0.010000000    -0.754000000
H     2.070000000     0.043000000    -1.323000000
C    -0.117000000     0.366000000    -1.148000000
H    -0.282000000     0.861000000    -2.077000000
C    -1.216000000     0.283000000    -0.327000000
H    -2.168000000     0.725000000    -0.608000000
C    -1.118000000    -0.168000000     0.989000000
H    -2.029000000    -0.126000000     1.581000000
C     0.114000000    -0.464000000     1.479000000
C     0.306000000    -0.951000000     2.895000000
O     1.388000000    -0.888000000     3.469000000
O    -0.623000000    -1.392000000     3.598000000
