14
-84.06921
C     1.295000000    -0.705000000     0.147000000
H     2.284000000    -1.155000000     0.139000000
C     0.826000000    -0.111000000    -0.993000000
H     1.265000000    -0.185000000    -1.985000000
C    -0.404000000     0.539000000    -1.012000000
H    -0.779000000     0.965000000    -1.919000000
C    -1.147000000     0.674000000     0.171000000
H    -2.040000000     1.281000000     0.292000000
C    -0.659000000     0.079000000     1.292000000
H    -1.197000000     0.259000000     2.219000000
C     0.561000000    -0.586000000     1.327000000
C     0.982000000    -1.377000000     2.575000000
O     1.934000000    -2.189000000     2.539000000
O     0.295000000    -1.378000000     3.532000000
