14
-93.14455
C     0.261000000     1.157000000     0.845000000
H     0.528000000     2.094000000     1.328000000
C     0.474000000     1.108000000    -0.500000000
H     1.040000000     1.925000000    -0.940000000
C     0.143000000    -0.073000000    -1.249000000
H     0.287000000    -0.092000000    -2.276000000
C    -0.409000000    -1.140000000    -0.552000000
H    -0.576000000    -2.094000000    -1.047000000
C    -0.606000000    -1.069000000     0.838000000
H    -1.099000000    -1.871000000     1.382000000
C    -0.253000000     0.034000000     1.524000000
C    -0.436000000     0.224000000     3.021000000
O    -0.400000000     1.389000000     3.470000000
O    -0.634000000    -0.779000000     3.735000000
