14
-78.15211
C     1.436000000    -0.054000000     0.309000000
H     2.510000000     0.030000000     0.453000000
C     0.837000000     0.691000000    -0.692000000
H     1.337000000     1.441000000    -1.300000000
C    -0.545000000     0.673000000    -0.863000000
H    -1.074000000     1.203000000    -1.627000000
C    -1.308000000    -0.065000000    -0.058000000
H    -2.389000000    -0.051000000    -0.171000000
C    -0.718000000    -0.856000000     0.926000000
H    -1.339000000    -1.588000000     1.436000000
C     0.647000000    -0.870000000     1.163000000
C     1.339000000    -1.564000000     2.312000000
O     2.522000000    -1.522000000     2.473000000
O     0.645000000    -2.203000000     2.995000000
