14
-84.61884
C     0.420000000     1.408000000     0.365000000
H     0.769000000     2.434000000     0.453000000
C     0.243000000     0.860000000    -0.943000000
H     0.462000000     1.530000000    -1.771000000
C    -0.202000000    -0.407000000    -1.164000000
H    -0.343000000    -0.804000000    -2.166000000
C    -0.254000000    -1.278000000    -0.086000000
H    -0.545000000    -2.311000000    -0.259000000
C    -0.073000000    -0.795000000     1.242000000
H    -0.124000000    -1.513000000     2.056000000
C     0.255000000     0.538000000     1.459000000
C     0.497000000     1.027000000     2.880000000
O     0.552000000     2.177000000     3.125000000
O     0.449000000     0.191000000     3.735000000
