14
-80.42911
C     0.566000000    -0.681000000     1.184000000
H     0.973000000    -1.299000000     1.979000000
C     1.348000000    -0.286000000     0.130000000
H     2.431000000    -0.329000000     0.047000000
C     0.706000000     0.400000000    -0.894000000
H     1.276000000     0.740000000    -1.775000000
C    -0.688000000     0.508000000    -0.939000000
H    -1.195000000     1.060000000    -1.726000000
C    -1.402000000     0.151000000     0.135000000
H    -2.477000000     0.309000000     0.101000000
C    -0.839000000    -0.588000000     1.160000000
C    -1.730000000    -1.107000000     2.299000000
O    -1.285000000    -1.569000000     3.290000000
O    -2.968000000    -1.106000000     2.192000000
