14
-84.37074
C     0.923000000    -0.966000000     0.607000000
H     1.687000000    -1.659000000     0.950000000
C     1.008000000    -0.446000000    -0.678000000
H     1.844000000    -0.766000000    -1.294000000
C     0.083000000     0.482000000    -1.129000000
H     0.029000000     0.970000000    -2.179000000
C    -0.978000000     0.851000000    -0.256000000
H    -1.646000000     1.646000000    -0.581000000
C    -1.119000000     0.253000000     0.948000000
H    -1.813000000     0.555000000     1.727000000
C    -0.159000000    -0.584000000     1.436000000
C    -0.308000000    -1.159000000     2.811000000
O     0.640000000    -1.856000000     3.197000000
O    -1.298000000    -1.082000000     3.473000000
