14
-85.50462
C     0.602000000    -1.235000000     0.587000000
H     1.140000000    -2.131000000     0.886000000
C     0.821000000    -0.739000000    -0.721000000
H     1.497000000    -1.229000000    -1.418000000
C     0.246000000     0.507000000    -1.128000000
H     0.352000000     0.957000000    -2.070000000
C    -0.677000000     1.039000000    -0.219000000
H    -1.107000000     1.992000000    -0.516000000
C    -1.000000000     0.532000000     0.979000000
H    -1.698000000     1.088000000     1.601000000
C    -0.351000000    -0.617000000     1.472000000
C    -0.590000000    -1.283000000     2.880000000
O     0.028000000    -2.330000000     3.101000000
O    -1.336000000    -0.859000000     3.735000000
