14
-90.12381
C     0.291000000     0.124000000     1.455000000
H     0.597000000     0.188000000     2.497000000
C     1.233000000    -0.080000000     0.440000000
H     2.292000000    -0.032000000     0.681000000
C     0.808000000    -0.248000000    -0.838000000
H     1.599000000    -0.466000000    -1.683000000
C    -0.522000000    -0.062000000    -1.198000000
H    -0.898000000    -0.206000000    -2.208000000
C    -1.462000000     0.169000000    -0.153000000
H    -2.522000000     0.177000000    -0.393000000
C    -1.053000000     0.224000000     1.201000000
C    -2.098000000     0.559000000     2.279000000
O    -1.746000000     0.688000000     3.430000000
O    -3.214000000     0.919000000     1.873000000
