14
-89.93451
C     0.507000000    -0.355000000     1.338000000
H     1.032000000    -0.496000000     2.279000000
C     1.069000000    -0.720000000     0.150000000
H     2.028000000    -1.231000000     0.184000000
C     0.434000000    -0.381000000    -1.023000000
H     0.869000000    -0.752000000    -1.963000000
C    -0.696000000     0.390000000    -1.089000000
H    -1.093000000     0.714000000    -2.047000000
C    -1.340000000     0.680000000     0.118000000
H    -2.326000000     1.137000000     0.130000000
C    -0.699000000     0.379000000     1.340000000
C    -1.245000000     0.909000000     2.656000000
O    -1.033000000     0.292000000     3.667000000
O    -1.838000000     1.967000000     2.649000000
