14
-91.33492
C     0.820000000    -0.663000000     1.041000000
H     1.504000000    -1.042000000     1.796000000
C     1.252000000     0.047000000    -0.074000000
H     2.325000000     0.202000000    -0.154000000
C     0.386000000     0.596000000    -1.022000000
H     0.768000000     1.209000000    -1.813000000
C    -0.933000000     0.281000000    -0.956000000
H    -1.675000000     0.471000000    -1.728000000
C    -1.405000000    -0.352000000     0.208000000
H    -2.469000000    -0.574000000     0.205000000
C    -0.523000000    -0.727000000     1.272000000
C    -1.086000000    -1.382000000     2.550000000
O    -0.282000000    -1.643000000     3.454000000
O    -2.296000000    -1.572000000     2.655000000
