14
-84.45815
C     0.506000000    -0.184000000     1.372000000
H     0.924000000    -0.418000000     2.348000000
C     1.276000000     0.163000000     0.271000000
H     2.360000000     0.197000000     0.345000000
C     0.652000000     0.402000000    -0.983000000
H     1.135000000     0.698000000    -1.860000000
C    -0.765000000     0.166000000    -1.149000000
H    -1.148000000     0.327000000    -2.153000000
C    -1.435000000    -0.337000000    -0.051000000
H    -2.466000000    -0.654000000    -0.181000000
C    -0.909000000    -0.286000000     1.245000000
C    -1.790000000    -0.726000000     2.401000000
O    -1.478000000    -0.780000000     3.577000000
O    -2.968000000    -1.107000000     2.137000000
