14
-83.17058
C    -1.391000000     0.192000000     0.202000000
H    -2.389000000     0.121000000     0.627000000
C    -0.403000000     0.216000000     1.158000000
H    -0.626000000     0.393000000     2.207000000
C     0.905000000     0.213000000     0.830000000
H     1.701000000     0.258000000     1.656000000
C     1.275000000     0.029000000    -0.522000000
H     2.336000000    -0.016000000    -0.753000000
C     0.257000000    -0.194000000    -1.475000000
H     0.424000000    -0.633000000    -2.455000000
C    -1.099000000    -0.200000000    -1.117000000
C    -2.248000000    -0.547000000    -2.176000000
O    -1.946000000    -1.110000000    -3.218000000
O    -3.378000000    -0.233000000    -1.920000000
