14
-91.03863
C     0.472000000    -0.212000000     1.360000000
H     0.814000000    -0.554000000     2.333000000
C     1.033000000    -0.749000000     0.192000000
H     1.701000000    -1.605000000     0.234000000
C     0.511000000    -0.406000000    -1.036000000
H     0.957000000    -0.892000000    -1.908000000
C    -0.599000000     0.420000000    -1.148000000
H    -1.018000000     0.513000000    -2.146000000
C    -1.158000000     0.990000000     0.021000000
H    -1.970000000     1.712000000     0.005000000
C    -0.641000000     0.624000000     1.262000000
C    -1.233000000     1.161000000     2.572000000
O    -0.972000000     0.596000000     3.648000000
O    -2.085000000     2.019000000     2.534000000
