14
-82.38238
C     0.622000000    -0.054000000     1.325000000
H     1.145000000     0.035000000     2.274000000
C     1.262000000     0.097000000     0.168000000
H     2.346000000     0.178000000     0.190000000
C     0.563000000     0.190000000    -1.042000000
H     1.195000000     0.333000000    -1.951000000
C    -0.858000000     0.022000000    -1.158000000
H    -1.262000000    -0.098000000    -2.160000000
C    -1.525000000    -0.143000000     0.081000000
H    -2.557000000    -0.483000000     0.107000000
C    -0.804000000    -0.161000000     1.325000000
C    -1.565000000    -0.398000000     2.684000000
O    -0.991000000    -0.129000000     3.705000000
O    -2.670000000    -0.836000000     2.655000000
