14
-81.04268
C     0.746000000    -0.289000000     1.275000000
H     0.979000000    -0.669000000     2.266000000
C     0.234000000    -1.232000000     0.368000000
H     0.306000000    -2.290000000     0.605000000
C    -0.281000000    -0.769000000    -0.872000000
H    -0.617000000    -1.483000000    -1.600000000
C    -0.335000000     0.567000000    -1.166000000
H    -0.785000000     0.930000000    -2.086000000
C     0.048000000     1.475000000    -0.178000000
H    -0.210000000     2.512000000    -0.377000000
C     0.562000000     1.085000000     1.036000000
C     0.551000000     2.032000000     2.151000000
O     0.260000000     1.637000000     3.251000000
O     0.799000000     3.200000000     2.017000000
