14
-86.51266
C     0.726000000    -0.837000000     0.984000000
H     1.310000000    -1.461000000     1.655000000
C     0.899000000    -0.828000000    -0.408000000
H     1.772000000    -1.333000000    -0.813000000
C     0.175000000    -0.019000000    -1.271000000
H     0.452000000     0.038000000    -2.270000000
C    -0.707000000     0.901000000    -0.654000000
H    -1.290000000     1.652000000    -1.182000000
C    -1.000000000     0.817000000     0.676000000
H    -1.776000000     1.395000000     1.171000000
C    -0.269000000     0.026000000     1.533000000
C    -0.431000000     0.112000000     3.081000000
O     0.155000000    -0.748000000     3.751000000
O    -1.089000000     0.950000000     3.614000000
