14
-73.69241
C     1.029000000     0.754000000     0.725000000
H     1.928000000     1.199000000     1.143000000
C     1.243000000    -0.202000000    -0.259000000
H     2.275000000    -0.315000000    -0.579000000
C     0.208000000    -0.762000000    -0.970000000
H     0.492000000    -1.409000000    -1.858000000
C    -1.098000000    -0.463000000    -0.605000000
H    -1.837000000    -1.111000000    -1.069000000
C    -1.293000000     0.282000000     0.601000000
H    -2.259000000     0.394000000     1.085000000
C    -0.258000000     0.946000000     1.255000000
C    -0.541000000     1.927000000     2.329000000
O     0.300000000     2.649000000     2.827000000
O    -1.659000000     2.240000000     2.634000000
