14
-88.48770
C     1.036000000    -0.563000000    -0.906000000
H     1.745000000    -1.006000000    -1.600000000
C     0.199000000     0.517000000    -1.279000000
H     0.086000000     0.855000000    -2.306000000
C    -0.744000000     0.899000000    -0.334000000
H    -1.421000000     1.690000000    -0.557000000
C    -0.819000000     0.334000000     0.972000000
H    -1.541000000     0.702000000     1.696000000
C     0.118000000    -0.675000000     1.331000000
H     0.140000000    -1.042000000     2.354000000
C     1.021000000    -1.103000000     0.348000000
C     2.047000000    -2.134000000     0.736000000
O     2.743000000    -2.650000000    -0.099000000
O     2.317000000    -2.264000000     1.927000000
