14
-88.24243
C     1.339000000    -0.322000000    -0.536000000
H     2.216000000    -0.688000000    -1.062000000
C     0.258000000     0.124000000    -1.279000000
H     0.424000000     0.066000000    -2.352000000
C    -0.899000000     0.522000000    -0.628000000
H    -1.825000000     0.549000000    -1.239000000
C    -0.989000000     0.479000000     0.749000000
H    -1.941000000     0.766000000     1.188000000
C     0.069000000     0.016000000     1.497000000
H    -0.093000000    -0.087000000     2.567000000
C     1.274000000    -0.376000000     0.835000000
C     2.355000000    -1.132000000     1.600000000
O     3.137000000    -1.754000000     0.910000000
O     2.314000000    -1.178000000     2.803000000
