14
-88.78793
C    -0.959000000    -1.151000000    -0.074000000
H    -1.821000000    -1.811000000    -0.132000000
C    -1.161000000     0.141000000    -0.570000000
H    -2.116000000     0.429000000    -1.000000000
C    -0.183000000     1.121000000    -0.422000000
H    -0.344000000     2.030000000    -0.867000000
C     1.059000000     0.848000000     0.159000000
H     1.724000000     1.688000000     0.343000000
C     1.288000000    -0.455000000     0.622000000
H     2.173000000    -0.736000000     1.186000000
C     0.288000000    -1.455000000     0.496000000
C     0.545000000    -2.851000000     1.110000000
O     0.257000000    -3.849000000     0.503000000
O     1.278000000    -2.880000000     2.084000000
