14
-86.88355
C    -0.693000000    -1.207000000    -0.419000000
H    -1.254000000    -2.022000000    -0.870000000
C    -1.161000000     0.090000000    -0.510000000
H    -2.092000000     0.307000000    -1.027000000
C    -0.427000000     1.136000000    -0.046000000
H    -0.747000000     2.216000000    -0.197000000
C     0.846000000     0.967000000     0.489000000
H     1.461000000     1.804000000     0.811000000
C     1.306000000    -0.352000000     0.492000000
H     2.289000000    -0.484000000     0.938000000
C     0.523000000    -1.473000000     0.139000000
C     0.982000000    -2.921000000     0.238000000
O     0.415000000    -3.842000000    -0.286000000
O     2.005000000    -3.117000000     0.882000000
