14
-82.00094
C     0.184000000    -0.869000000     1.182000000
H     0.202000000    -1.391000000     2.135000000
C    -0.974000000    -0.178000000     0.892000000
H    -1.772000000    -0.176000000     1.631000000
C    -1.065000000     0.632000000    -0.284000000
H    -1.950000000     1.319000000    -0.541000000
C    -0.038000000     0.531000000    -1.139000000
H    -0.215000000     1.032000000    -2.087000000
C     1.170000000    -0.136000000    -0.807000000
H     2.065000000    -0.087000000    -1.422000000
C     1.285000000    -0.815000000     0.405000000
C     2.644000000    -1.433000000     0.815000000
O     2.705000000    -1.978000000     1.903000000
O     3.624000000    -1.277000000     0.164000000
