14
-80.78753
C    -0.923000000    -0.796000000     0.771000000
H    -1.717000000    -1.482000000     1.055000000
C    -1.265000000     0.291000000    -0.013000000
H    -2.304000000     0.514000000    -0.240000000
C    -0.280000000     0.906000000    -0.775000000
H    -0.582000000     1.753000000    -1.441000000
C     1.055000000     0.635000000    -0.482000000
H     1.753000000     1.193000000    -1.101000000
C     1.394000000    -0.405000000     0.430000000
H     2.467000000    -0.502000000     0.574000000
C     0.408000000    -1.057000000     1.190000000
C     0.729000000    -2.309000000     1.930000000
O    -0.202000000    -2.895000000     2.450000000
O     1.843000000    -2.811000000     2.012000000
