14
-89.23648
C    -0.804000000    -0.952000000     0.855000000
H    -1.438000000    -1.608000000     1.446000000
C    -1.302000000    -0.114000000    -0.062000000
H    -2.383000000    -0.067000000    -0.167000000
C    -0.477000000     0.806000000    -0.811000000
H    -0.837000000     1.606000000    -1.435000000
C     0.900000000     0.748000000    -0.673000000
H     1.521000000     1.393000000    -1.290000000
C     1.429000000    -0.143000000     0.283000000
H     2.511000000    -0.179000000     0.382000000
C     0.582000000    -1.022000000     1.031000000
C     1.256000000    -2.043000000     1.949000000
O     0.564000000    -2.896000000     2.494000000
O     2.442000000    -1.969000000     2.090000000
