14
-79.55291
C    -0.788000000    -1.171000000    -0.334000000
H    -1.314000000    -1.963000000    -0.861000000
C    -0.810000000     0.028000000    -0.982000000
H    -1.398000000     0.169000000    -1.885000000
C    -0.081000000     1.090000000    -0.485000000
H    -0.063000000     1.966000000    -0.931000000
C     0.684000000     0.907000000     0.638000000
H     1.258000000     1.725000000     1.067000000
C     0.718000000    -0.341000000     1.274000000
H     1.458000000    -0.540000000     2.045000000
C     0.009000000    -1.411000000     0.753000000
C     0.262000000    -2.760000000     1.282000000
O    -0.464000000    -3.664000000     0.936000000
O     1.310000000    -2.964000000     1.810000000
