14
-73.71703
C    -1.202000000     0.612000000     0.738000000
H    -2.197000000     0.849000000     1.107000000
C    -1.005000000     0.556000000    -0.634000000
H    -1.739000000     0.942000000    -1.337000000
C     0.188000000     0.105000000    -1.210000000
H     0.417000000     0.281000000    -2.215000000
C     1.179000000    -0.414000000    -0.400000000
H     2.102000000    -0.857000000    -0.766000000
C     0.985000000    -0.469000000     0.955000000
H     1.779000000    -0.811000000     1.613000000
C    -0.194000000     0.011000000     1.562000000
C    -0.409000000    -0.077000000     3.062000000
O    -1.299000000     0.460000000     3.652000000
O     0.087000000    -0.977000000     3.668000000
