14
-83.95140
C    -0.943000000    -0.468000000     1.043000000
H    -1.779000000    -0.615000000     1.722000000
C    -1.314000000    -0.182000000    -0.289000000
H    -2.340000000    -0.029000000    -0.614000000
C    -0.317000000     0.041000000    -1.217000000
H    -0.640000000     0.326000000    -2.250000000
C     1.064000000    -0.005000000    -0.814000000
H     1.769000000     0.162000000    -1.624000000
C     1.305000000    -0.115000000     0.533000000
H     2.338000000    -0.105000000     0.873000000
C     0.371000000    -0.379000000     1.460000000
C     0.718000000    -0.395000000     2.921000000
O    -0.136000000    -0.226000000     3.757000000
O     1.894000000    -0.526000000     3.330000000
