14
-91.82647
C    -0.935000000     0.464000000     1.026000000
H    -1.566000000     0.982000000     1.744000000
C    -1.041000000     0.810000000    -0.342000000
H    -1.801000000     1.464000000    -0.762000000
C    -0.132000000     0.228000000    -1.187000000
H    -0.151000000     0.543000000    -2.242000000
C     0.763000000    -0.737000000    -0.769000000
H     1.437000000    -1.189000000    -1.492000000
C     0.873000000    -1.069000000     0.599000000
H     1.688000000    -1.682000000     0.973000000
C     0.025000000    -0.447000000     1.508000000
C     0.360000000    -0.603000000     3.007000000
O    -0.091000000     0.184000000     3.844000000
O     0.999000000    -1.578000000     3.332000000
