14
-90.12436
C    -0.620000000    -1.226000000    -0.527000000
H    -1.155000000    -2.067000000    -0.961000000
C    -1.253000000    -0.123000000     0.131000000
H    -2.338000000    -0.161000000     0.168000000
C    -0.576000000     0.967000000     0.637000000
H    -1.100000000     1.814000000     1.136000000
C     0.863000000     0.932000000     0.498000000
H     1.556000000     1.615000000     0.982000000
C     1.439000000    -0.051000000    -0.274000000
H     2.521000000    -0.037000000    -0.375000000
C     0.748000000    -1.171000000    -0.796000000
C     1.364000000    -2.179000000    -1.665000000
O     2.525000000    -1.979000000    -1.992000000
O     0.719000000    -3.181000000    -2.034000000
