14
-84.34030
C    -0.861000000    -1.079000000     0.476000000
H    -1.473000000    -1.941000000     0.730000000
C    -0.848000000    -0.505000000    -0.812000000
H    -1.478000000    -0.904000000    -1.602000000
C    -0.087000000     0.594000000    -1.143000000
H    -0.217000000     1.132000000    -2.084000000
C     0.815000000     1.009000000    -0.199000000
H     1.439000000     1.880000000    -0.381000000
C     0.894000000     0.418000000     1.122000000
H     1.537000000     0.798000000     1.911000000
C     0.042000000    -0.639000000     1.449000000
C     0.182000000    -1.296000000     2.770000000
O    -0.504000000    -2.280000000     3.057000000
O     0.908000000    -0.869000000     3.598000000
