14
-92.80479
C    -0.382000000    -1.417000000    -0.146000000
H    -0.792000000    -2.415000000    -0.274000000
C    -0.914000000    -0.309000000    -0.812000000
H    -1.709000000    -0.517000000    -1.523000000
C    -0.435000000     1.007000000    -0.621000000
H    -0.918000000     1.867000000    -1.099000000
C     0.525000000     1.197000000     0.331000000
H     0.829000000     2.211000000     0.579000000
C     1.141000000     0.110000000     0.954000000
H     1.955000000     0.299000000     1.649000000
C     0.678000000    -1.227000000     0.744000000
C     1.205000000    -2.394000000     1.506000000
O     1.018000000    -3.546000000     1.073000000
O     1.805000000    -2.128000000     2.512000000
