14
-71.74439
C     0.006000000    -1.477000000    -0.263000000
H    -0.061000000    -2.535000000    -0.503000000
C    -0.729000000    -0.478000000    -0.938000000
H    -1.411000000    -0.681000000    -1.760000000
C    -0.680000000     0.863000000    -0.634000000
H    -1.248000000     1.669000000    -1.162000000
C     0.143000000     1.215000000     0.411000000
H     0.030000000     2.247000000     0.734000000
C     0.928000000     0.252000000     1.112000000
H     1.374000000     0.650000000     2.020000000
C     0.832000000    -1.123000000     0.831000000
C     1.656000000    -2.082000000     1.475000000
O     1.752000000    -3.262000000     1.227000000
O     2.154000000    -1.758000000     2.529000000
