14
-87.34457
C    -0.747000000    -1.236000000     0.300000000
H    -1.355000000    -2.129000000     0.419000000
C    -0.989000000    -0.406000000    -0.795000000
H    -1.768000000    -0.576000000    -1.534000000
C    -0.216000000     0.731000000    -0.977000000
H    -0.343000000     1.245000000    -1.880000000
C     0.809000000     1.047000000    -0.046000000
H     1.374000000     1.967000000    -0.170000000
C     0.997000000     0.271000000     1.088000000
H     1.777000000     0.527000000     1.800000000
C     0.295000000    -0.934000000     1.261000000
C     0.598000000    -1.896000000     2.386000000
O    -0.101000000    -2.887000000     2.667000000
O     1.544000000    -1.720000000     3.133000000
