14
-83.14136
C    -0.256000000    -0.974000000    -1.153000000
H    -0.272000000    -1.537000000    -2.082000000
C    -0.477000000     0.437000000    -1.250000000
H    -0.512000000     0.951000000    -2.207000000
C    -0.189000000     1.194000000    -0.168000000
H    -0.243000000     2.286000000    -0.208000000
C     0.140000000     0.590000000     1.061000000
H     0.411000000     1.225000000     1.900000000
C     0.150000000    -0.767000000     1.223000000
H     0.405000000    -1.145000000     2.210000000
C     0.058000000    -1.585000000     0.064000000
C     0.291000000    -3.036000000     0.249000000
O    -0.159000000    -3.905000000    -0.532000000
O     0.764000000    -3.403000000     1.282000000
