14
-88.01243
C     0.788000000    -0.040000000    -1.263000000
H     1.358000000    -0.144000000    -2.182000000
C    -0.551000000    -0.566000000    -1.051000000
H    -1.116000000    -1.011000000    -1.866000000
C    -1.179000000    -0.461000000     0.204000000
H    -2.132000000    -0.818000000     0.375000000
C    -0.411000000     0.120000000     1.268000000
H    -0.861000000     0.249000000     2.249000000
C     0.893000000     0.612000000     1.037000000
H     1.312000000     1.173000000     1.868000000
C     1.481000000     0.521000000    -0.205000000
C     2.910000000     1.109000000    -0.479000000
O     3.537000000     0.801000000    -1.464000000
O     3.466000000     1.837000000     0.364000000
