14
-89.36720
C     0.308000000    -0.311000000    -1.482000000
H     0.451000000    -0.590000000    -2.523000000
C    -0.942000000     0.037000000    -0.902000000
H    -1.844000000     0.075000000    -1.508000000
C    -1.102000000     0.201000000     0.498000000
H    -2.120000000     0.251000000     0.916000000
C    -0.005000000     0.122000000     1.337000000
H    -0.080000000     0.284000000     2.409000000
C     1.293000000    -0.056000000     0.792000000
H     2.163000000    -0.076000000     1.442000000
C     1.426000000    -0.355000000    -0.594000000
C     2.803000000    -0.662000000    -1.163000000
O     2.853000000    -1.153000000    -2.263000000
O     3.841000000    -0.586000000    -0.499000000
