14
-87.73305
C     0.555000000    -0.095000000    -1.373000000
H     0.898000000    -0.200000000    -2.399000000
C    -0.745000000     0.342000000    -1.087000000
H    -1.335000000     0.671000000    -1.939000000
C    -1.180000000     0.445000000     0.274000000
H    -2.173000000     0.738000000     0.545000000
C    -0.293000000     0.030000000     1.293000000
H    -0.632000000     0.095000000     2.324000000
C     0.971000000    -0.463000000     0.964000000
H     1.580000000    -1.011000000     1.679000000
C     1.453000000    -0.455000000    -0.360000000
C     2.863000000    -1.018000000    -0.674000000
O     3.281000000    -1.027000000    -1.802000000
O     3.609000000    -1.409000000     0.202000000
