14
-89.88936
C     0.530000000    -1.097000000    -0.899000000
H     0.934000000    -1.712000000    -1.699000000
C    -0.595000000    -0.273000000    -1.166000000
H    -1.163000000    -0.284000000    -2.092000000
C    -0.933000000     0.690000000    -0.234000000
H    -1.662000000     1.400000000    -0.551000000
C    -0.357000000     0.783000000     1.056000000
H    -0.776000000     1.497000000     1.761000000
C     0.815000000     0.012000000     1.319000000
H     1.284000000     0.031000000     2.299000000
C     1.248000000    -0.940000000     0.337000000
C     2.443000000    -1.788000000     0.614000000
O     2.779000000    -2.697000000    -0.139000000
O     3.113000000    -1.467000000     1.601000000
