14
-82.25396
C    -0.383000000    -0.770000000    -1.117000000
H    -0.847000000    -1.363000000    -1.901000000
C    -1.143000000     0.136000000    -0.433000000
H    -2.149000000     0.311000000    -0.807000000
C    -0.613000000     0.885000000     0.570000000
H    -1.127000000     1.634000000     1.077000000
C     0.686000000     0.693000000     0.924000000
H     1.102000000     1.311000000     1.715000000
C     1.413000000    -0.307000000     0.347000000
H     2.374000000    -0.525000000     0.805000000
C     0.862000000    -1.138000000    -0.624000000
C     1.566000000    -2.246000000    -1.392000000
O     0.952000000    -3.041000000    -2.143000000
O     2.716000000    -2.570000000    -1.090000000
