14
-91.57572
C    -0.653000000    -0.356000000    -1.321000000
H    -1.152000000    -0.503000000    -2.276000000
C    -1.247000000     0.508000000    -0.363000000
H    -2.247000000     0.920000000    -0.480000000
C    -0.584000000     0.759000000     0.872000000
H    -1.007000000     1.321000000     1.622000000
C     0.644000000     0.059000000     1.056000000
H     1.118000000     0.116000000     2.032000000
C     1.251000000    -0.720000000     0.106000000
H     2.205000000    -1.206000000     0.293000000
C     0.579000000    -0.949000000    -1.076000000
C     1.170000000    -1.992000000    -2.014000000
O     0.563000000    -2.231000000    -3.035000000
O     2.236000000    -2.571000000    -1.740000000
