14
-86.83283
C    -0.990000000    -0.941000000    -0.561000000
H    -1.788000000    -1.538000000    -0.993000000
C    -1.298000000     0.027000000     0.403000000
H    -2.291000000     0.096000000     0.840000000
C    -0.268000000     0.788000000     0.861000000
H    -0.498000000     1.486000000     1.751000000
C     1.018000000     0.650000000     0.339000000
H     1.821000000     1.229000000     0.789000000
C     1.314000000    -0.269000000    -0.601000000
H     2.330000000    -0.215000000    -0.984000000
C     0.317000000    -1.073000000    -1.070000000
C     0.695000000    -2.056000000    -2.139000000
O    -0.072000000    -3.014000000    -2.246000000
O     1.770000000    -1.991000000    -2.695000000
