14
-87.94450
C    -1.158000000    -0.738000000    -0.630000000
H    -2.081000000    -1.260000000    -0.871000000
C    -1.230000000     0.295000000     0.316000000
H    -2.194000000     0.623000000     0.698000000
C    -0.084000000     0.919000000     0.791000000
H    -0.191000000     1.699000000     1.439000000
C     1.168000000     0.439000000     0.469000000
H     2.080000000     0.936000000     0.789000000
C     1.231000000    -0.661000000    -0.396000000
H     2.218000000    -0.937000000    -0.757000000
C     0.075000000    -1.205000000    -0.973000000
C     0.204000000    -2.208000000    -2.093000000
O    -0.674000000    -3.022000000    -2.368000000
O     1.276000000    -2.261000000    -2.664000000
