14
-90.00396
C    -1.169000000    -0.744000000    -0.158000000
H    -2.061000000    -1.365000000    -0.133000000
C    -1.146000000     0.389000000     0.608000000
H    -1.986000000     0.762000000     1.189000000
C     0.102000000     1.040000000     0.617000000
H     0.273000000     1.957000000     1.134000000
C     1.203000000     0.549000000    -0.137000000
H     2.133000000     1.111000000    -0.129000000
C     1.131000000    -0.577000000    -0.891000000
H     2.033000000    -1.007000000    -1.318000000
C    -0.115000000    -1.244000000    -0.946000000
C    -0.315000000    -2.606000000    -1.604000000
O    -1.324000000    -3.304000000    -1.462000000
O     0.638000000    -3.011000000    -2.270000000
