14
-90.90858
C     0.231000000    -1.372000000    -0.609000000
H     0.281000000    -2.237000000    -1.265000000
C    -0.706000000    -0.443000000    -1.037000000
H    -1.357000000    -0.685000000    -1.873000000
C    -0.840000000     0.801000000    -0.363000000
H    -1.556000000     1.472000000    -0.860000000
C    -0.026000000     1.177000000     0.711000000
H    -0.105000000     2.192000000     1.090000000
C     0.945000000     0.273000000     1.105000000
H     1.656000000     0.542000000     1.882000000
C     1.095000000    -1.011000000     0.469000000
C     2.269000000    -1.969000000     0.858000000
O     2.227000000    -3.117000000     0.363000000
O     3.130000000    -1.624000000     1.666000000
