14
-88.50131
C    -0.888000000    -0.491000000    -1.029000000
H    -1.623000000    -0.930000000    -1.699000000
C    -1.072000000    -0.698000000     0.320000000
H    -1.872000000    -1.334000000     0.691000000
C    -0.085000000    -0.175000000     1.207000000
H    -0.121000000    -0.445000000     2.280000000
C     0.983000000     0.556000000     0.671000000
H     1.744000000     0.939000000     1.347000000
C     0.977000000     0.854000000    -0.713000000
H     1.857000000     1.374000000    -1.083000000
C     0.018000000     0.391000000    -1.580000000
C     0.067000000     0.729000000    -3.026000000
O     1.136000000     1.178000000    -3.438000000
O    -0.880000000     0.459000000    -3.691000000
