14
-89.99676
C    -0.090000000    -1.068000000    -1.046000000
H    -0.167000000    -1.791000000    -1.854000000
C    -1.188000000    -0.344000000    -0.560000000
H    -2.220000000    -0.501000000    -0.865000000
C    -0.941000000     0.593000000     0.415000000
H    -1.830000000     1.218000000     0.702000000
C     0.311000000     0.794000000     1.003000000
H     0.479000000     1.624000000     1.685000000
C     1.356000000     0.075000000     0.550000000
H     2.334000000     0.269000000     0.982000000
C     1.190000000    -0.869000000    -0.488000000
C     2.324000000    -1.622000000    -1.077000000
O     2.138000000    -2.396000000    -2.012000000
O     3.467000000    -1.460000000    -0.657000000
