14
-92.07613
C     0.806000000    -0.686000000    -1.057000000
H     1.289000000    -1.286000000    -1.825000000
C    -0.566000000    -0.333000000    -1.101000000
H    -1.200000000    -0.532000000    -1.960000000
C    -1.216000000     0.257000000    -0.017000000
H    -2.323000000     0.427000000     0.001000000
C    -0.450000000     0.760000000     1.013000000
H    -0.941000000     1.373000000     1.765000000
C     0.953000000     0.465000000     1.048000000
H     1.552000000     0.830000000     1.878000000
C     1.571000000    -0.290000000     0.037000000
C     3.001000000    -0.779000000     0.137000000
O     3.480000000    -1.418000000    -0.767000000
O     3.597000000    -0.571000000     1.198000000
