14
-88.15130
C    -0.273000000    -1.311000000    -0.576000000
H    -0.575000000    -2.248000000    -1.036000000
C    -1.125000000    -0.211000000    -0.599000000
H    -2.107000000    -0.390000000    -1.030000000
C    -0.726000000     1.003000000    -0.050000000
H    -1.377000000     1.885000000    -0.023000000
C     0.453000000     1.092000000     0.581000000
H     0.758000000     2.097000000     0.859000000
C     1.346000000     0.034000000     0.614000000
H     2.280000000     0.160000000     1.157000000
C     1.030000000    -1.207000000     0.013000000
C     1.823000000    -2.515000000     0.278000000
O     1.825000000    -3.408000000    -0.614000000
O     2.576000000    -2.564000000     1.232000000
