14
-84.85851
C    -0.475000000    -1.215000000    -0.794000000
H    -0.743000000    -2.066000000    -1.416000000
C    -1.227000000    -0.074000000    -0.582000000
H    -2.250000000     0.007000000    -0.940000000
C    -0.719000000     1.020000000     0.167000000
H    -1.353000000     1.905000000     0.292000000
C     0.528000000     0.925000000     0.756000000
H     1.000000000     1.744000000     1.292000000
C     1.313000000    -0.193000000     0.481000000
H     2.322000000    -0.336000000     0.860000000
C     0.802000000    -1.262000000    -0.219000000
C     1.736000000    -2.540000000    -0.278000000
O     1.340000000    -3.575000000    -0.743000000
O     2.917000000    -2.427000000    -0.098000000
