14
-87.52141
C     0.152000000    -0.762000000    -1.258000000
H     0.025000000    -1.339000000    -2.171000000
C    -0.647000000     0.387000000    -1.110000000
H    -1.262000000     0.719000000    -1.944000000
C    -0.701000000     1.027000000     0.126000000
H    -1.304000000     1.948000000     0.288000000
C    -0.020000000     0.486000000     1.246000000
H    -0.003000000     1.005000000     2.200000000
C     0.808000000    -0.573000000     1.058000000
H     1.518000000    -0.838000000     1.837000000
C     0.944000000    -1.248000000    -0.182000000
C     1.803000000    -2.492000000    -0.326000000
O     1.924000000    -3.016000000    -1.440000000
O     2.355000000    -3.074000000     0.597000000
