14
-86.61633
C     1.012000000     0.523000000    -0.905000000
H     1.681000000     0.900000000    -1.674000000
C    -0.346000000     0.586000000    -1.086000000
H    -0.840000000     0.952000000    -1.982000000
C    -1.230000000     0.293000000    -0.083000000
H    -2.315000000     0.447000000    -0.100000000
C    -0.730000000    -0.275000000     1.102000000
H    -1.447000000    -0.714000000     1.791000000
C     0.654000000    -0.468000000     1.263000000
H     0.981000000    -0.982000000     2.164000000
C     1.564000000    -0.051000000     0.245000000
C     3.070000000    -0.304000000     0.256000000
O     3.870000000     0.470000000    -0.331000000
O     3.536000000    -1.193000000     0.910000000
