14
-89.03120
C     1.386000000     0.395000000     0.329000000
H     2.378000000     0.755000000     0.588000000
C     0.222000000     0.932000000     0.862000000
H     0.344000000     1.669000000     1.651000000
C    -1.056000000     0.412000000     0.535000000
H    -1.889000000     0.843000000     1.058000000
C    -1.153000000    -0.738000000    -0.273000000
H    -2.148000000    -1.133000000    -0.458000000
C     0.029000000    -1.226000000    -0.790000000
H     0.065000000    -2.079000000    -1.464000000
C     1.267000000    -0.630000000    -0.555000000
C     2.559000000    -1.156000000    -1.175000000
O     3.577000000    -0.493000000    -1.054000000
O     2.666000000    -2.248000000    -1.780000000
