14
-85.93182
C     0.989000000     0.047000000    -1.072000000
H     1.596000000     0.113000000    -1.972000000
C    -0.341000000     0.556000000    -1.091000000
H    -0.655000000     1.135000000    -1.956000000
C    -1.200000000     0.357000000    -0.047000000
H    -2.077000000     0.953000000    -0.078000000
C    -0.747000000    -0.230000000     1.157000000
H    -1.411000000    -0.281000000     2.017000000
C     0.572000000    -0.735000000     1.152000000
H     1.053000000    -1.285000000     1.957000000
C     1.472000000    -0.559000000     0.119000000
C     2.900000000    -1.198000000     0.092000000
O     3.546000000    -1.052000000    -0.963000000
O     3.159000000    -1.946000000     0.964000000
