14
-84.21092
C     1.437000000    -0.060000000    -0.435000000
H     2.512000000    -0.171000000    -0.548000000
C     1.002000000     0.238000000     0.864000000
H     1.745000000     0.381000000     1.644000000
C    -0.394000000     0.367000000     1.120000000
H    -0.763000000     0.564000000     2.181000000
C    -1.286000000     0.109000000     0.049000000
H    -2.367000000     0.164000000     0.147000000
C    -0.851000000    -0.182000000    -1.197000000
H    -1.584000000    -0.298000000    -1.990000000
C     0.527000000    -0.340000000    -1.458000000
C     1.016000000    -0.712000000    -2.829000000
O     2.065000000    -1.325000000    -2.886000000
O     0.217000000    -0.804000000    -3.741000000
