14
-77.11380
C     1.369000000     0.411000000     0.276000000
H     2.371000000     0.687000000     0.595000000
C     0.327000000     0.688000000     1.144000000
H     0.481000000     1.216000000     2.081000000
C    -0.973000000     0.215000000     0.792000000
H    -1.762000000     0.437000000     1.489000000
C    -1.116000000    -0.576000000    -0.342000000
H    -2.118000000    -0.886000000    -0.630000000
C     0.006000000    -0.725000000    -1.239000000
H    -0.173000000    -1.250000000    -2.174000000
C     1.296000000    -0.319000000    -0.860000000
C     2.360000000    -0.468000000    -1.919000000
O     3.141000000     0.375000000    -2.212000000
O     2.386000000    -1.454000000    -2.630000000
