14
-83.31081
C     0.555000000     1.114000000    -0.868000000
H     0.917000000     1.952000000    -1.458000000
C    -0.124000000     1.304000000     0.309000000
H    -0.486000000     2.271000000     0.646000000
C    -0.656000000     0.248000000     1.007000000
H    -1.263000000     0.284000000     1.889000000
C    -0.382000000    -1.033000000     0.604000000
H    -0.823000000    -1.901000000     1.088000000
C     0.437000000    -1.303000000    -0.500000000
H     0.652000000    -2.322000000    -0.813000000
C     0.836000000    -0.218000000    -1.290000000
C     1.613000000    -0.487000000    -2.515000000
O     1.756000000     0.363000000    -3.410000000
O     2.119000000    -1.542000000    -2.671000000
