14
-90.10260
C     1.343000000     0.608000000    -0.053000000
H     2.331000000     1.057000000     0.006000000
C     0.426000000     0.883000000     0.950000000
H     0.546000000     1.754000000     1.589000000
C    -0.807000000     0.153000000     0.952000000
H    -1.568000000     0.247000000     1.730000000
C    -1.051000000    -0.831000000    -0.007000000
H    -1.983000000    -1.391000000    -0.016000000
C    -0.095000000    -1.068000000    -1.060000000
H    -0.187000000    -1.818000000    -1.841000000
C     1.058000000    -0.327000000    -1.044000000
C     2.031000000    -0.612000000    -2.196000000
O     3.019000000     0.130000000    -2.304000000
O     1.914000000    -1.543000000    -2.969000000
