14
-83.01743
C     0.434000000     1.264000000    -0.694000000
H     0.853000000     2.188000000    -1.085000000
C     0.020000000     1.149000000     0.577000000
H     0.026000000     2.122000000     1.063000000
C    -0.373000000    -0.060000000     1.181000000
H    -0.710000000    -0.093000000     2.171000000
C    -0.586000000    -1.164000000     0.300000000
H    -1.060000000    -2.102000000     0.579000000
C    -0.159000000    -1.124000000    -1.028000000
H    -0.115000000    -2.083000000    -1.538000000
C     0.427000000     0.121000000    -1.479000000
C     1.102000000     0.077000000    -2.839000000
O     1.790000000     1.060000000    -3.200000000
O     1.056000000    -0.926000000    -3.511000000
