14
-88.22072
C     0.976000000     0.441000000    -0.987000000
H     1.805000000     0.741000000    -1.622000000
C     0.567000000     1.159000000     0.190000000
H     1.054000000     2.084000000     0.489000000
C    -0.422000000     0.635000000     1.009000000
H    -0.704000000     1.297000000     1.849000000
C    -0.982000000    -0.604000000     0.706000000
H    -1.662000000    -1.033000000     1.437000000
C    -0.572000000    -1.289000000    -0.507000000
H    -1.020000000    -2.269000000    -0.650000000
C     0.420000000    -0.766000000    -1.337000000
C     0.920000000    -1.518000000    -2.529000000
O     1.886000000    -1.145000000    -3.148000000
O     0.385000000    -2.595000000    -2.815000000
