14
-88.41926
C     1.289000000    -0.682000000    -0.131000000
H     2.236000000    -1.212000000    -0.068000000
C     0.740000000    -0.236000000     1.015000000
H     1.295000000    -0.383000000     1.938000000
C    -0.505000000     0.361000000     1.089000000
H    -0.861000000     0.883000000     2.012000000
C    -1.253000000     0.438000000    -0.074000000
H    -2.216000000     0.937000000    -0.153000000
C    -0.639000000     0.030000000    -1.279000000
H    -1.208000000     0.217000000    -2.186000000
C     0.611000000    -0.509000000    -1.345000000
C     1.165000000    -1.070000000    -2.651000000
O     2.269000000    -1.677000000    -2.660000000
O     0.614000000    -0.803000000    -3.683000000
