14
-83.82913
C    -0.325000000    -0.622000000    -1.288000000
H    -0.593000000    -1.124000000    -2.213000000
C    -0.976000000    -0.880000000    -0.081000000
H    -1.811000000    -1.575000000    -0.084000000
C    -0.529000000    -0.305000000     1.052000000
H    -1.143000000    -0.397000000     1.978000000
C     0.496000000     0.632000000     0.966000000
H     0.795000000     1.160000000     1.868000000
C     1.071000000     1.018000000    -0.228000000
H     1.928000000     1.682000000    -0.145000000
C     0.717000000     0.363000000    -1.380000000
C     1.396000000     0.525000000    -2.637000000
O     2.175000000     1.449000000    -2.705000000
O     1.112000000    -0.183000000    -3.591000000
