14
-72.63232
C     0.513000000     0.457000000    -1.337000000
H     1.004000000     0.805000000    -2.243000000
C     0.721000000     1.060000000    -0.079000000
H     1.229000000     2.019000000    -0.151000000
C     0.150000000     0.489000000     1.121000000
H     0.334000000     0.940000000     2.027000000
C    -0.642000000    -0.634000000     1.038000000
H    -1.076000000    -1.007000000     1.962000000
C    -0.731000000    -1.283000000    -0.181000000
H    -1.390000000    -2.145000000    -0.232000000
C    -0.219000000    -0.711000000    -1.352000000
C    -0.504000000    -1.389000000    -2.657000000
O    -0.600000000    -0.822000000    -3.706000000
O    -0.074000000    -2.518000000    -2.692000000
