14
-80.56061
C     1.048000000     0.131000000    -1.001000000
H     1.923000000     0.135000000    -1.647000000
C     1.001000000     0.783000000     0.139000000
H     1.837000000     1.463000000     0.282000000
C     0.002000000     0.563000000     1.071000000
H    -0.011000000     1.113000000     2.023000000
C    -1.003000000    -0.237000000     0.731000000
H    -1.871000000    -0.327000000     1.379000000
C    -1.056000000    -0.929000000    -0.508000000
H    -1.897000000    -1.540000000    -0.826000000
C     0.036000000    -0.796000000    -1.383000000
C    -0.176000000    -1.312000000    -2.801000000
O     0.730000000    -1.120000000    -3.611000000
O    -1.024000000    -2.183000000    -2.968000000
