14
-86.64843
C     0.854000000    -0.465000000    -1.151000000
H     1.475000000    -0.818000000    -1.970000000
C     0.854000000     0.812000000    -0.551000000
H     1.623000000     1.518000000    -0.853000000
C     0.006000000     1.146000000     0.496000000
H    -0.054000000     2.242000000     0.751000000
C    -0.942000000     0.178000000     0.966000000
H    -1.619000000     0.356000000     1.797000000
C    -0.958000000    -1.080000000     0.358000000
H    -1.694000000    -1.809000000     0.686000000
C    -0.039000000    -1.433000000    -0.641000000
C    -0.016000000    -2.795000000    -1.319000000
O     0.887000000    -3.022000000    -2.111000000
O    -0.735000000    -3.559000000    -0.772000000
