14
-88.71960
C     0.063000000    -0.796000000    -1.216000000
H     0.114000000    -1.481000000    -2.059000000
C    -0.651000000    -1.126000000    -0.094000000
H    -1.113000000    -2.108000000    -0.038000000
C    -0.676000000    -0.224000000     1.003000000
H    -1.152000000    -0.448000000     1.982000000
C     0.129000000     0.900000000     1.024000000
H     0.170000000     1.448000000     1.961000000
C     0.854000000     1.229000000    -0.134000000
H     1.457000000     2.130000000    -0.202000000
C     0.808000000     0.396000000    -1.301000000
C     1.573000000     0.670000000    -2.538000000
O     2.447000000     1.512000000    -2.573000000
O     1.191000000     0.043000000    -3.493000000
