14
-78.96920
C     0.763000000    -0.040000000    -1.299000000
H     1.426000000     0.057000000    -2.155000000
C     1.192000000     0.471000000    -0.100000000
H     2.180000000     0.879000000     0.100000000
C     0.470000000     0.429000000     1.036000000
H     0.749000000     0.864000000     1.976000000
C    -0.827000000    -0.146000000     0.989000000
H    -1.488000000    -0.246000000     1.846000000
C    -1.285000000    -0.627000000    -0.185000000
H    -2.231000000    -1.162000000    -0.217000000
C    -0.537000000    -0.559000000    -1.395000000
C    -0.995000000    -1.132000000    -2.685000000
O    -0.256000000    -1.334000000    -3.617000000
O    -2.097000000    -1.551000000    -2.688000000
