14
-93.91142
C     1.045000000     0.284000000    -0.995000000
H     1.914000000     0.411000000    -1.636000000
C     0.964000000     0.896000000     0.276000000
H     1.852000000     1.339000000     0.721000000
C    -0.117000000     0.607000000     1.088000000
H    -0.128000000     0.865000000     2.138000000
C    -1.134000000    -0.260000000     0.676000000
H    -1.891000000    -0.655000000     1.350000000
C    -1.082000000    -0.813000000    -0.599000000
H    -1.880000000    -1.475000000    -0.923000000
C     0.003000000    -0.524000000    -1.463000000
C     0.118000000    -1.235000000    -2.818000000
O     0.960000000    -0.850000000    -3.670000000
O    -0.637000000    -2.202000000    -3.037000000
