14
-84.10436
C     1.254000000     0.190000000    -0.642000000
H     2.260000000     0.394000000    -0.999000000
C     0.885000000     0.481000000     0.684000000
H     1.644000000     0.821000000     1.384000000
C    -0.405000000     0.320000000     1.115000000
H    -0.700000000     0.491000000     2.151000000
C    -1.349000000    -0.166000000     0.209000000
H    -2.319000000    -0.358000000     0.660000000
C    -0.960000000    -0.531000000    -1.060000000
H    -1.656000000    -1.068000000    -1.699000000
C     0.370000000    -0.482000000    -1.431000000
C     0.909000000    -0.999000000    -2.780000000
O     2.078000000    -1.194000000    -3.000000000
O     0.087000000    -0.939000000    -3.646000000
