14
-82.64229
C     0.065000000    -1.451000000     0.003000000
H     0.139000000    -2.523000000    -0.159000000
C     0.191000000    -0.653000000    -1.097000000
H     0.315000000    -1.088000000    -2.085000000
C    -0.022000000     0.726000000    -0.975000000
H     0.080000000     1.399000000    -1.819000000
C    -0.225000000     1.321000000     0.273000000
H    -0.406000000     2.388000000     0.375000000
C    -0.408000000     0.409000000     1.328000000
H    -0.547000000     0.863000000     2.306000000
C    -0.159000000    -0.936000000     1.252000000
C    -0.123000000    -1.797000000     2.491000000
O     0.354000000    -2.915000000     2.410000000
O    -0.502000000    -1.447000000     3.564000000
