14
-82.26726
C    -0.174000000    -1.022000000    -0.995000000
H    -0.233000000    -1.852000000    -1.695000000
C    -0.743000000    -1.084000000     0.301000000
H    -1.333000000    -1.929000000     0.648000000
C    -0.544000000    -0.003000000     1.170000000
H    -1.042000000     0.083000000     2.099000000
C     0.352000000     1.058000000     0.758000000
H     0.539000000     1.913000000     1.403000000
C     0.976000000     1.038000000    -0.480000000
H     1.504000000     1.891000000    -0.898000000
C     0.715000000    -0.013000000    -1.381000000
C     1.241000000     0.032000000    -2.788000000
O     2.120000000     0.787000000    -3.096000000
O     0.706000000    -0.549000000    -3.697000000
