14
-86.04405
C     1.104000000    -0.831000000     0.598000000
H     1.990000000    -1.300000000     1.019000000
C     1.090000000    -0.289000000    -0.720000000
H     1.960000000    -0.371000000    -1.366000000
C     0.006000000     0.461000000    -1.137000000
H     0.048000000     0.841000000    -2.083000000
C    -0.977000000     0.751000000    -0.240000000
H    -1.791000000     1.360000000    -0.625000000
C    -1.123000000     0.205000000     1.029000000
H    -1.921000000     0.435000000     1.731000000
C    -0.033000000    -0.649000000     1.438000000
C    -0.094000000    -1.337000000     2.809000000
O     0.490000000    -2.393000000     2.888000000
O    -0.748000000    -0.893000000     3.725000000
