14
-90.17646
C     0.829000000    -1.198000000     0.101000000
H     1.499000000    -2.035000000    -0.079000000
C     1.328000000     0.053000000    -0.114000000
H     2.397000000     0.193000000    -0.251000000
C     0.419000000     1.100000000    -0.176000000
H     0.769000000     2.145000000    -0.068000000
C    -0.947000000     0.846000000    -0.017000000
H    -1.626000000     1.693000000    -0.080000000
C    -1.444000000    -0.392000000     0.234000000
H    -2.520000000    -0.459000000     0.374000000
C    -0.515000000    -1.429000000     0.353000000
C    -1.080000000    -2.823000000     0.645000000
O    -0.253000000    -3.638000000     1.034000000
O    -2.301000000    -2.963000000     0.564000000
