14
-92.03844
C     0.148000000    -0.856000000    -1.146000000
H     0.392000000    -1.421000000    -2.042000000
C     0.901000000     0.281000000    -0.903000000
H     1.640000000     0.626000000    -1.622000000
C     0.605000000     1.084000000     0.200000000
H     1.139000000     2.069000000     0.365000000
C    -0.364000000     0.580000000     1.084000000
H    -0.480000000     1.155000000     1.999000000
C    -1.093000000    -0.582000000     0.903000000
H    -1.736000000    -0.996000000     1.675000000
C    -0.879000000    -1.288000000    -0.278000000
C    -1.616000000    -2.555000000    -0.637000000
O    -1.473000000    -3.084000000    -1.712000000
O    -2.363000000    -3.033000000     0.233000000
