14
-89.70706
C     0.531000000    -1.120000000    -0.756000000
H     0.759000000    -1.866000000    -1.513000000
C     0.985000000     0.190000000    -0.858000000
H     1.710000000     0.439000000    -1.629000000
C     0.450000000     1.158000000    -0.021000000
H     0.676000000     2.214000000    -0.229000000
C    -0.491000000     0.765000000     0.898000000
H    -0.849000000     1.479000000     1.635000000
C    -0.951000000    -0.516000000     1.071000000
H    -1.723000000    -0.733000000     1.805000000
C    -0.434000000    -1.510000000     0.200000000
C    -0.989000000    -2.897000000     0.214000000
O    -0.586000000    -3.642000000    -0.699000000
O    -1.780000000    -3.286000000     1.025000000
