14
-84.17384
C     0.584000000    -1.344000000    -0.419000000
H     0.936000000    -2.362000000    -0.564000000
C     1.321000000    -0.245000000     0.039000000
H     2.391000000    -0.288000000     0.229000000
C     0.704000000     0.970000000     0.279000000
H     1.290000000     1.897000000     0.562000000
C    -0.676000000     1.041000000     0.314000000
H    -1.071000000     1.984000000     0.684000000
C    -1.412000000    -0.061000000    -0.022000000
H    -2.496000000     0.013000000     0.014000000
C    -0.817000000    -1.254000000    -0.450000000
C    -1.682000000    -2.450000000    -0.832000000
O    -1.099000000    -3.423000000    -1.187000000
O    -2.882000000    -2.421000000    -0.850000000
