14
-84.48833
C     0.367000000    -1.212000000    -0.715000000
H     0.666000000    -2.035000000    -1.360000000
C     0.954000000     0.022000000    -0.868000000
H     1.702000000     0.121000000    -1.650000000
C     0.529000000     1.088000000    -0.102000000
H     1.050000000     1.975000000    -0.259000000
C    -0.461000000     0.880000000     0.855000000
H    -0.779000000     1.799000000     1.339000000
C    -1.106000000    -0.325000000     0.990000000
H    -1.880000000    -0.457000000     1.742000000
C    -0.662000000    -1.437000000     0.185000000
C    -1.249000000    -2.780000000     0.275000000
O    -0.917000000    -3.656000000    -0.497000000
O    -2.169000000    -2.910000000     1.017000000
