14
-84.38013
C     0.977000000    -1.137000000    -0.012000000
H     1.796000000    -1.847000000    -0.093000000
C     1.242000000     0.195000000     0.365000000
H     2.241000000     0.538000000     0.621000000
C     0.227000000     1.157000000     0.425000000
H     0.423000000     2.206000000     0.845000000
C    -1.055000000     0.769000000     0.078000000
H    -1.825000000     1.526000000    -0.042000000
C    -1.362000000    -0.533000000    -0.454000000
H    -2.369000000    -0.704000000    -0.827000000
C    -0.310000000    -1.491000000    -0.465000000
C    -0.668000000    -2.875000000    -0.869000000
O     0.203000000    -3.737000000    -0.744000000
O    -1.766000000    -3.202000000    -1.175000000
