14
-88.45874
C     1.210000000    -0.832000000    -0.178000000
H     2.157000000    -1.338000000    -0.347000000
C     0.757000000     0.139000000    -1.082000000
H     1.260000000     0.302000000    -2.032000000
C    -0.412000000     0.825000000    -0.881000000
H    -0.752000000     1.526000000    -1.582000000
C    -1.115000000     0.608000000     0.312000000
H    -2.039000000     1.132000000     0.539000000
C    -0.679000000    -0.361000000     1.206000000
H    -1.184000000    -0.450000000     2.165000000
C     0.501000000    -1.102000000     0.996000000
C     0.978000000    -2.110000000     2.027000000
O     2.027000000    -2.742000000     1.877000000
O     0.251000000    -2.542000000     2.929000000
