14
-84.59114
C     1.042000000    -0.958000000     0.018000000
H     1.972000000    -1.519000000    -0.034000000
C     1.064000000     0.364000000     0.470000000
H     2.033000000     0.717000000     0.814000000
C    -0.040000000     1.157000000     0.415000000
H    -0.016000000     2.115000000     0.883000000
C    -1.207000000     0.605000000    -0.037000000
H    -2.088000000     1.227000000    -0.173000000
C    -1.245000000    -0.719000000    -0.545000000
H    -2.167000000    -1.104000000    -0.974000000
C    -0.080000000    -1.547000000    -0.496000000
C    -0.014000000    -2.908000000    -1.112000000
O     0.975000000    -3.623000000    -0.947000000
O    -0.811000000    -3.260000000    -1.933000000
