14
-86.67972
C     1.260000000    -0.690000000    -0.320000000
H     2.254000000    -1.059000000    -0.561000000
C     1.135000000     0.511000000     0.363000000
H     2.045000000     0.927000000     0.787000000
C    -0.101000000     1.060000000     0.606000000
H    -0.109000000     1.935000000     1.161000000
C    -1.276000000     0.381000000     0.226000000
H    -2.193000000     0.842000000     0.584000000
C    -1.192000000    -0.835000000    -0.457000000
H    -2.012000000    -1.425000000    -0.859000000
C     0.046000000    -1.305000000    -0.796000000
C     0.151000000    -2.557000000    -1.681000000
O     1.258000000    -3.005000000    -1.795000000
O    -0.797000000    -2.975000000    -2.289000000
