14
-76.50729
C     1.433000000    -0.475000000     0.285000000
H     2.492000000    -0.700000000     0.379000000
C     0.906000000     0.837000000     0.561000000
H     1.515000000     1.535000000     1.130000000
C    -0.455000000     1.094000000     0.297000000
H    -0.901000000     2.055000000     0.500000000
C    -1.228000000     0.112000000    -0.252000000
H    -2.310000000     0.175000000    -0.329000000
C    -0.748000000    -1.104000000    -0.530000000
H    -1.407000000    -1.838000000    -0.986000000
C     0.583000000    -1.447000000    -0.314000000
C     1.189000000    -2.661000000    -0.931000000
O     2.353000000    -2.989000000    -0.845000000
O     0.575000000    -3.223000000    -1.805000000
