14
-90.69670
C     0.636000000    -1.386000000    -0.377000000
H     1.202000000    -2.288000000    -0.593000000
C     1.144000000    -0.469000000     0.573000000
H     2.073000000    -0.715000000     1.083000000
C     0.466000000     0.682000000     0.966000000
H     0.946000000     1.297000000     1.670000000
C    -0.756000000     0.965000000     0.346000000
H    -1.385000000     1.828000000     0.549000000
C    -1.274000000     0.095000000    -0.616000000
H    -2.148000000     0.510000000    -1.112000000
C    -0.540000000    -1.027000000    -1.045000000
C    -1.091000000    -1.805000000    -2.232000000
O    -0.493000000    -2.789000000    -2.631000000
O    -2.009000000    -1.300000000    -2.894000000
