14
-88.29586
C     1.111000000    -0.778000000    -0.564000000
H     1.978000000    -1.338000000    -0.905000000
C     1.251000000     0.277000000     0.380000000
H     2.185000000     0.539000000     0.871000000
C     0.102000000     0.920000000     0.808000000
H     0.169000000     1.646000000     1.630000000
C    -1.106000000     0.626000000     0.220000000
H    -2.015000000     1.155000000     0.495000000
C    -1.279000000    -0.464000000    -0.693000000
H    -2.282000000    -0.733000000    -1.015000000
C    -0.155000000    -1.195000000    -1.016000000
C    -0.229000000    -2.373000000    -1.884000000
O     0.765000000    -2.988000000    -2.251000000
O    -1.312000000    -2.773000000    -2.314000000
