14
-87.49124
C     1.402000000    -0.051000000    -0.361000000
H     2.473000000     0.079000000    -0.489000000
C     0.894000000     0.259000000     0.944000000
H     1.538000000     0.571000000     1.762000000
C    -0.459000000     0.236000000     1.092000000
H    -0.835000000     0.538000000     2.044000000
C    -1.331000000    -0.063000000     0.030000000
H    -2.404000000    -0.158000000     0.173000000
C    -0.868000000    -0.367000000    -1.237000000
H    -1.630000000    -0.575000000    -1.984000000
C     0.542000000    -0.397000000    -1.457000000
C     1.230000000    -0.798000000    -2.774000000
O     2.449000000    -1.027000000    -2.852000000
O     0.573000000    -0.820000000    -3.793000000
