14
-82.81964
C     1.217000000    -0.102000000    -0.861000000
H     2.182000000    -0.190000000    -1.353000000
C     1.138000000     0.339000000     0.481000000
H     2.043000000     0.732000000     0.939000000
C     0.008000000     0.370000000     1.189000000
H     0.005000000     0.703000000     2.181000000
C    -1.095000000    -0.089000000     0.646000000
H    -2.017000000    -0.158000000     1.218000000
C    -1.154000000    -0.579000000    -0.707000000
H    -2.053000000    -0.975000000    -1.174000000
C     0.015000000    -0.530000000    -1.468000000
C    -0.069000000    -0.995000000    -2.910000000
O     0.949000000    -0.928000000    -3.629000000
O    -1.150000000    -1.284000000    -3.480000000
