14
-84.06871
C    -0.920000000    -0.666000000    -1.014000000
H    -1.675000000    -1.181000000    -1.602000000
C    -1.180000000    -0.544000000     0.352000000
H    -2.040000000    -1.064000000     0.767000000
C    -0.260000000     0.099000000     1.235000000
H    -0.411000000     0.199000000     2.349000000
C     0.783000000     0.797000000     0.610000000
H     1.544000000     1.289000000     1.210000000
C     0.984000000     0.786000000    -0.690000000
H     1.775000000     1.432000000    -1.063000000
C     0.146000000     0.056000000    -1.560000000
C     0.396000000     0.057000000    -3.041000000
O     1.258000000     0.812000000    -3.566000000
O    -0.092000000    -0.867000000    -3.639000000
