14
-81.18070
C    -1.064000000     1.051000000    -0.131000000
H    -1.689000000     1.940000000    -0.172000000
C    -0.219000000     0.794000000     0.947000000
H    -0.216000000     1.507000000     1.767000000
C     0.711000000    -0.189000000     0.993000000
H     1.215000000    -0.515000000     1.936000000
C     0.754000000    -1.058000000    -0.062000000
H     1.462000000    -1.879000000     0.014000000
C     0.073000000    -0.851000000    -1.192000000
H     0.131000000    -1.527000000    -2.041000000
C    -0.889000000     0.205000000    -1.266000000
C    -1.741000000     0.391000000    -2.490000000
O    -2.334000000     1.448000000    -2.671000000
O    -1.970000000    -0.492000000    -3.304000000
