14
-91.18780
C    -0.099000000     1.336000000     0.721000000
H     0.011000000     2.322000000     1.165000000
C     0.345000000     0.162000000     1.317000000
H     0.788000000     0.084000000     2.307000000
C     0.400000000    -1.021000000     0.579000000
H     0.711000000    -1.975000000     1.016000000
C    -0.046000000    -1.032000000    -0.762000000
H    -0.195000000    -1.959000000    -1.310000000
C    -0.447000000     0.181000000    -1.429000000
H    -0.846000000     0.184000000    -2.440000000
C    -0.469000000     1.341000000    -0.659000000
C    -0.960000000     2.619000000    -1.290000000
O    -1.136000000     3.580000000    -0.511000000
O    -1.190000000     2.760000000    -2.494000000
