14
-83.69564
C    -0.381000000     1.205000000     0.837000000
H    -0.422000000     2.093000000     1.462000000
C     0.464000000     0.189000000     1.189000000
H     0.967000000     0.341000000     2.141000000
C     0.627000000    -0.959000000     0.422000000
H     1.145000000    -1.802000000     0.907000000
C    -0.004000000    -1.086000000    -0.854000000
H     0.063000000    -2.012000000    -1.419000000
C    -0.680000000     0.076000000    -1.297000000
H    -1.124000000     0.018000000    -2.287000000
C    -0.869000000     1.186000000    -0.498000000
C    -1.596000000     2.364000000    -1.130000000
O    -1.882000000     3.327000000    -0.460000000
O    -1.913000000     2.305000000    -2.272000000
