14
-91.63344
C     0.396000000     0.909000000    -1.102000000
H     0.716000000     1.589000000    -1.887000000
C     1.096000000     0.647000000     0.071000000
H     2.065000000     1.123000000     0.195000000
C     0.642000000    -0.211000000     1.024000000
H     1.208000000    -0.303000000     1.971000000
C    -0.650000000    -0.755000000     0.856000000
H    -1.050000000    -1.386000000     1.646000000
C    -1.324000000    -0.596000000    -0.351000000
H    -2.301000000    -1.070000000    -0.411000000
C    -0.835000000     0.266000000    -1.346000000
C    -1.569000000     0.595000000    -2.657000000
O    -1.181000000     1.430000000    -3.504000000
O    -2.717000000     0.129000000    -2.712000000
