14
-87.97802
C    -0.431000000     1.427000000    -0.369000000
H    -0.660000000     2.461000000    -0.613000000
C     0.628000000     1.081000000     0.494000000
H     1.333000000     1.841000000     0.820000000
C     0.832000000    -0.253000000     0.848000000
H     1.632000000    -0.522000000     1.571000000
C     0.001000000    -1.246000000     0.414000000
H     0.048000000    -2.276000000     0.758000000
C    -0.986000000    -0.927000000    -0.575000000
H    -1.533000000    -1.752000000    -1.025000000
C    -1.154000000     0.382000000    -1.013000000
C    -2.112000000     0.650000000    -2.160000000
O    -2.300000000     1.817000000    -2.582000000
O    -2.431000000    -0.268000000    -2.859000000
