14
-89.00298
C     0.256000000     0.434000000    -1.398000000
H     0.605000000     0.759000000    -2.375000000
C     1.263000000     0.326000000    -0.381000000
H     2.326000000     0.458000000    -0.567000000
C     0.881000000    -0.024000000     0.881000000
H     1.645000000    -0.131000000     1.681000000
C    -0.455000000    -0.393000000     1.106000000
H    -0.748000000    -0.681000000     2.112000000
C    -1.436000000    -0.282000000     0.135000000
H    -2.481000000    -0.492000000     0.349000000
C    -1.050000000     0.149000000    -1.142000000
C    -2.165000000     0.224000000    -2.223000000
O    -1.986000000    -0.031000000    -3.411000000
O    -3.337000000     0.441000000    -1.896000000
