14
-84.32867
C    -0.991000000     0.995000000    -0.565000000
H    -1.775000000     1.706000000    -0.810000000
C    -0.758000000     0.694000000     0.801000000
H    -1.319000000     1.173000000     1.600000000
C     0.235000000    -0.189000000     1.228000000
H     0.399000000    -0.363000000     2.256000000
C     0.932000000    -0.789000000     0.190000000
H     1.797000000    -1.347000000     0.540000000
C     0.544000000    -0.731000000    -1.164000000
H     1.165000000    -1.232000000    -1.902000000
C    -0.368000000     0.211000000    -1.540000000
C    -0.760000000     0.304000000    -3.014000000
O    -1.528000000     1.210000000    -3.410000000
O    -0.499000000    -0.566000000    -3.807000000
