14
-82.67072
C    -0.934000000     0.929000000    -0.653000000
H    -1.606000000     1.695000000    -1.030000000
C    -0.870000000     0.689000000     0.715000000
H    -1.448000000     1.281000000     1.420000000
C     0.063000000    -0.144000000     1.246000000
H     0.114000000    -0.334000000     2.343000000
C     0.939000000    -0.870000000     0.351000000
H     1.690000000    -1.609000000     0.619000000
C     0.819000000    -0.651000000    -1.036000000
H     1.497000000    -1.313000000    -1.569000000
C    -0.120000000     0.256000000    -1.535000000
C    -0.245000000     0.378000000    -2.989000000
O    -0.785000000     1.325000000    -3.505000000
O     0.272000000    -0.462000000    -3.690000000
