14
-71.95866
C     0.206000000     0.838000000    -1.176000000
H     0.409000000     1.585000000    -1.938000000
C     0.618000000     1.176000000     0.132000000
H     1.203000000     2.073000000     0.320000000
C     0.263000000     0.292000000     1.111000000
H     0.466000000     0.632000000     2.091000000
C    -0.362000000    -0.917000000     0.893000000
H    -0.523000000    -1.611000000     1.714000000
C    -0.706000000    -1.177000000    -0.407000000
H    -1.174000000    -2.153000000    -0.507000000
C    -0.454000000    -0.334000000    -1.470000000
C    -0.910000000    -0.618000000    -2.883000000
O    -0.977000000     0.255000000    -3.707000000
O    -0.752000000    -1.708000000    -3.329000000
