14
-90.22016
C     0.483000000    -0.004000000    -1.409000000
H     0.943000000    -0.242000000    -2.365000000
C     1.217000000     0.389000000    -0.300000000
H     2.296000000     0.413000000    -0.434000000
C     0.621000000     0.572000000     0.947000000
H     1.124000000     0.910000000     1.775000000
C    -0.748000000     0.376000000     1.078000000
H    -1.187000000     0.564000000     2.054000000
C    -1.418000000    -0.211000000     0.004000000
H    -2.471000000    -0.464000000     0.091000000
C    -0.869000000    -0.385000000    -1.235000000
C    -1.646000000    -1.021000000    -2.386000000
O    -1.023000000    -1.344000000    -3.401000000
O    -2.831000000    -1.307000000    -2.284000000
