14
-92.28329
C     0.813000000     0.598000000    -1.096000000
H     1.386000000     1.184000000    -1.810000000
C     0.685000000     1.108000000     0.203000000
H     1.246000000     1.940000000     0.622000000
C    -0.048000000     0.398000000     1.178000000
H    -0.150000000     0.739000000     2.242000000
C    -0.861000000    -0.691000000     0.778000000
H    -1.474000000    -1.298000000     1.439000000
C    -0.773000000    -1.141000000    -0.509000000
H    -1.315000000    -2.015000000    -0.859000000
C     0.031000000    -0.504000000    -1.467000000
C     0.070000000    -1.012000000    -2.935000000
O     0.480000000    -0.190000000    -3.764000000
O    -0.174000000    -2.181000000    -3.222000000
