14
-81.06864
C    -0.092000000    -1.286000000     0.764000000
H    -0.261000000    -2.199000000     1.329000000
C    -1.184000000    -0.525000000     0.289000000
H    -2.180000000    -0.842000000     0.586000000
C    -0.977000000     0.648000000    -0.435000000
H    -1.915000000     1.236000000    -0.709000000
C     0.270000000     0.993000000    -0.769000000
H     0.328000000     1.952000000    -1.278000000
C     1.454000000     0.257000000    -0.360000000
H     2.497000000     0.530000000    -0.502000000
C     1.257000000    -0.876000000     0.458000000
C     2.471000000    -1.533000000     1.169000000
O     3.529000000    -1.432000000     0.632000000
O     2.341000000    -2.197000000     2.158000000
