14
-92.22960
C     0.636000000    -1.221000000    -0.496000000
H     1.033000000    -2.211000000    -0.704000000
C    -0.411000000    -1.135000000     0.429000000
H    -0.754000000    -2.024000000     0.954000000
C    -0.992000000     0.038000000     0.758000000
H    -1.727000000     0.082000000     1.480000000
C    -0.502000000     1.204000000     0.138000000
H    -0.821000000     2.194000000     0.455000000
C     0.537000000     1.131000000    -0.799000000
H     0.881000000     2.029000000    -1.306000000
C     1.195000000    -0.073000000    -1.036000000
C     2.366000000    -0.151000000    -1.992000000
O     2.962000000     0.899000000    -2.241000000
O     2.685000000    -1.214000000    -2.519000000
