14
-87.63132
C     1.378000000     0.384000000    -0.351000000
H     2.340000000     0.793000000    -0.650000000
C     0.404000000     1.202000000     0.073000000
H     0.579000000     2.273000000     0.126000000
C    -0.835000000     0.742000000     0.493000000
H    -1.564000000     1.475000000     0.885000000
C    -1.162000000    -0.589000000     0.286000000
H    -2.163000000    -0.940000000     0.525000000
C    -0.213000000    -1.474000000    -0.267000000
H    -0.451000000    -2.495000000    -0.556000000
C     1.088000000    -0.952000000    -0.463000000
C     2.120000000    -1.825000000    -1.176000000
O     3.205000000    -1.847000000    -0.652000000
O     1.780000000    -2.586000000    -2.076000000
