14
-90.20571
C     1.066000000    -0.834000000    -0.669000000
H     1.919000000    -1.434000000    -0.978000000
C     0.990000000    -0.458000000     0.702000000
H     1.713000000    -0.729000000     1.468000000
C     0.011000000     0.462000000     1.158000000
H     0.125000000     0.900000000     2.219000000
C    -0.946000000     0.883000000     0.261000000
H    -1.621000000     1.689000000     0.535000000
C    -1.037000000     0.279000000    -0.985000000
H    -1.884000000     0.514000000    -1.625000000
C    -0.021000000    -0.538000000    -1.499000000
C    -0.156000000    -1.195000000    -2.869000000
O     0.474000000    -2.220000000    -3.096000000
O    -0.783000000    -0.599000000    -3.746000000
