14
-86.07862
C     0.436000000     0.597000000    -1.249000000
H     0.865000000     1.076000000    -2.125000000
C     0.779000000     1.066000000     0.052000000
H     1.418000000     1.940000000     0.149000000
C     0.285000000     0.429000000     1.145000000
H     0.487000000     0.920000000     2.146000000
C    -0.580000000    -0.622000000     1.012000000
H    -0.986000000    -1.170000000     1.859000000
C    -0.994000000    -1.028000000    -0.291000000
H    -1.735000000    -1.822000000    -0.336000000
C    -0.490000000    -0.438000000    -1.471000000
C    -0.738000000    -0.953000000    -2.874000000
O    -0.410000000    -0.305000000    -3.820000000
O    -1.461000000    -1.923000000    -2.998000000
