14
-84.16257
C    -1.282000000    -0.584000000     0.428000000
H    -2.217000000    -0.983000000     0.813000000
C    -0.172000000    -0.333000000     1.253000000
H    -0.167000000    -0.595000000     2.308000000
C     0.995000000     0.157000000     0.736000000
H     1.856000000     0.285000000     1.256000000
C     1.034000000     0.620000000    -0.589000000
H     1.932000000     1.145000000    -0.907000000
C    -0.013000000     0.278000000    -1.446000000
H     0.066000000     0.483000000    -2.510000000
C    -1.223000000    -0.295000000    -0.924000000
C    -2.410000000    -0.532000000    -1.808000000
O    -3.363000000    -1.118000000    -1.373000000
O    -2.534000000    -0.129000000    -2.979000000
