14
-79.83648
C     0.380000000    -1.456000000    -0.190000000
H     0.446000000    -2.540000000    -0.131000000
C     0.445000000    -0.660000000     1.021000000
H     0.823000000    -1.192000000     1.891000000
C     0.128000000     0.680000000     1.077000000
H     0.224000000     1.260000000     1.989000000
C    -0.210000000     1.287000000    -0.105000000
H    -0.442000000     2.349000000    -0.079000000
C    -0.218000000     0.540000000    -1.344000000
H    -0.601000000     1.065000000    -2.214000000
C     0.081000000    -0.865000000    -1.373000000
C    -0.256000000    -1.586000000    -2.578000000
O    -0.372000000    -2.802000000    -2.549000000
O    -0.309000000    -1.061000000    -3.679000000
