14
-79.53666
C    -0.028000000     1.137000000     1.017000000
H     0.044000000     2.063000000     1.583000000
C     1.133000000     0.535000000     0.536000000
H     2.119000000     0.826000000     0.890000000
C     1.044000000    -0.486000000    -0.435000000
H     1.933000000    -0.796000000    -0.993000000
C    -0.219000000    -0.944000000    -0.827000000
H    -0.184000000    -1.688000000    -1.619000000
C    -1.399000000    -0.432000000    -0.247000000
H    -2.320000000    -0.912000000    -0.566000000
C    -1.311000000     0.623000000     0.626000000
C    -2.660000000     1.209000000     1.144000000
O    -2.672000000     2.001000000     2.036000000
O    -3.694000000     0.997000000     0.614000000
