14
-87.74497
C    -0.717000000     0.583000000     1.192000000
H    -1.195000000     0.804000000     2.143000000
C     0.669000000     0.476000000     1.033000000
H     1.289000000     0.855000000     1.841000000
C     1.263000000    -0.044000000    -0.104000000
H     2.337000000    -0.117000000    -0.254000000
C     0.407000000    -0.612000000    -1.113000000
H     0.884000000    -1.062000000    -1.979000000
C    -0.961000000    -0.418000000    -1.015000000
H    -1.598000000    -0.736000000    -1.837000000
C    -1.538000000     0.161000000     0.141000000
C    -3.056000000     0.124000000     0.270000000
O    -3.646000000     0.551000000     1.245000000
O    -3.721000000    -0.493000000    -0.537000000
