14
-83.40051
C    -0.881000000    -0.303000000     1.199000000
H    -1.458000000    -0.508000000     2.097000000
C     0.464000000    -0.036000000     1.237000000
H     1.056000000    -0.199000000     2.134000000
C     1.211000000     0.166000000     0.081000000
H     2.304000000     0.248000000     0.184000000
C     0.559000000     0.117000000    -1.158000000
H     1.195000000     0.192000000    -2.037000000
C    -0.789000000    -0.091000000    -1.266000000
H    -1.229000000    -0.198000000    -2.254000000
C    -1.563000000    -0.216000000    -0.089000000
C    -2.987000000    -0.447000000    -0.209000000
O    -3.669000000    -0.792000000     0.778000000
O    -3.578000000    -0.072000000    -1.191000000
