14
-90.49270
C     0.557000000     0.748000000    -1.114000000
H     0.999000000     1.346000000    -1.907000000
C     1.320000000     0.074000000    -0.132000000
H     2.403000000     0.093000000    -0.228000000
C     0.635000000    -0.597000000     0.870000000
H     1.233000000    -1.220000000     1.593000000
C    -0.738000000    -0.659000000     0.908000000
H    -1.241000000    -1.229000000     1.686000000
C    -1.515000000     0.008000000    -0.109000000
H    -2.589000000    -0.160000000    -0.148000000
C    -0.859000000     0.740000000    -1.091000000
C    -1.558000000     1.425000000    -2.196000000
O    -1.116000000     2.473000000    -2.642000000
O    -2.683000000     1.042000000    -2.526000000
