14
-82.58638
C     0.640000000     0.540000000    -1.137000000
H     1.192000000     0.940000000    -1.984000000
C     1.298000000    -0.228000000    -0.174000000
H     2.365000000    -0.306000000    -0.369000000
C     0.545000000    -0.907000000     0.694000000
H     1.012000000    -1.661000000     1.392000000
C    -0.842000000    -0.751000000     0.730000000
H    -1.419000000    -1.112000000     1.578000000
C    -1.393000000     0.215000000    -0.097000000
H    -2.471000000     0.348000000    -0.069000000
C    -0.673000000     0.903000000    -1.075000000
C    -1.294000000     1.957000000    -1.979000000
O    -0.605000000     2.758000000    -2.560000000
O    -2.518000000     2.016000000    -2.117000000
