14
-85.58186
C    -0.186000000     0.838000000     1.191000000
H    -0.132000000     1.504000000     2.049000000
C     0.988000000     0.106000000     0.853000000
H     1.897000000     0.124000000     1.449000000
C     0.964000000    -0.628000000    -0.307000000
H     1.908000000    -1.019000000    -0.669000000
C    -0.167000000    -0.726000000    -1.067000000
H    -0.246000000    -1.500000000    -1.827000000
C    -1.276000000     0.028000000    -0.761000000
H    -2.212000000    -0.120000000    -1.294000000
C    -1.302000000     0.820000000     0.357000000
C    -2.468000000     1.675000000     0.596000000
O    -2.320000000     2.639000000     1.360000000
O    -3.499000000     1.604000000    -0.045000000
