14
-88.14820
C     0.300000000     1.150000000    -0.968000000
H     0.585000000     2.020000000    -1.554000000
C     1.208000000     0.233000000    -0.455000000
H     2.237000000     0.157000000    -0.798000000
C     0.863000000    -0.722000000     0.484000000
H     1.557000000    -1.470000000     0.797000000
C    -0.424000000    -0.737000000     0.984000000
H    -0.771000000    -1.499000000     1.678000000
C    -1.433000000     0.115000000     0.448000000
H    -2.440000000    -0.053000000     0.821000000
C    -1.028000000     1.031000000    -0.547000000
C    -2.079000000     1.887000000    -1.179000000
O    -1.765000000     2.695000000    -2.049000000
O    -3.249000000     1.689000000    -0.949000000
