14
-91.25411
C    -0.799000000     1.092000000    -0.499000000
H    -1.321000000     2.022000000    -0.708000000
C     0.270000000     1.251000000     0.398000000
H     0.539000000     2.231000000     0.783000000
C     1.010000000     0.077000000     0.750000000
H     1.831000000     0.236000000     1.468000000
C     0.613000000    -1.134000000     0.235000000
H     1.222000000    -2.025000000     0.368000000
C    -0.558000000    -1.246000000    -0.525000000
H    -0.867000000    -2.238000000    -0.846000000
C    -1.295000000    -0.128000000    -0.930000000
C    -2.595000000    -0.204000000    -1.711000000
O    -2.926000000     0.762000000    -2.346000000
O    -3.133000000    -1.310000000    -1.801000000
