14
-78.46020
C     0.496000000     0.481000000    -1.317000000
H     1.014000000     0.580000000    -2.267000000
C     1.311000000     0.267000000    -0.244000000
H     2.393000000     0.344000000    -0.322000000
C     0.713000000    -0.050000000     0.948000000
H     1.322000000    -0.317000000     1.761000000
C    -0.668000000    -0.179000000     1.083000000
H    -1.079000000    -0.470000000     2.047000000
C    -1.494000000     0.016000000    -0.015000000
H    -2.549000000    -0.202000000     0.129000000
C    -0.871000000     0.268000000    -1.211000000
C    -1.654000000     0.211000000    -2.470000000
O    -1.208000000     0.028000000    -3.596000000
O    -2.826000000     0.416000000    -2.416000000
