14
-84.07500
C    -1.145000000     0.746000000    -0.557000000
H    -1.720000000     1.327000000    -1.274000000
C    -0.019000000     1.375000000    -0.097000000
H     0.215000000     2.401000000    -0.371000000
C     0.959000000     0.584000000     0.547000000
H     1.893000000     0.952000000     0.959000000
C     0.674000000    -0.771000000     0.706000000
H     1.390000000    -1.416000000     1.210000000
C    -0.445000000    -1.359000000     0.153000000
H    -0.593000000    -2.394000000     0.449000000
C    -1.421000000    -0.613000000    -0.435000000
C    -2.471000000    -1.390000000    -1.214000000
O    -3.173000000    -0.702000000    -1.923000000
O    -2.704000000    -2.619000000    -1.040000000
