14
-89.75917
C    -1.187000000     0.858000000     0.151000000
H    -1.949000000     1.627000000     0.048000000
C     0.032000000     1.130000000     0.737000000
H     0.253000000     2.087000000     1.202000000
C     1.029000000     0.208000000     0.608000000
H     1.995000000     0.346000000     1.018000000
C     0.878000000    -0.956000000    -0.118000000
H     1.655000000    -1.716000000    -0.132000000
C    -0.374000000    -1.243000000    -0.656000000
H    -0.501000000    -2.187000000    -1.179000000
C    -1.421000000    -0.334000000    -0.522000000
C    -2.691000000    -0.583000000    -1.253000000
O    -3.568000000     0.282000000    -1.214000000
O    -2.780000000    -1.532000000    -2.001000000
