14
-75.40499
C    -1.146000000     0.836000000    -0.414000000
H    -1.874000000     1.529000000    -0.826000000
C     0.080000000     1.279000000    -0.011000000
H     0.274000000     2.348000000    -0.044000000
C     1.060000000     0.403000000     0.427000000
H     2.003000000     0.848000000     0.657000000
C     0.806000000    -0.938000000     0.363000000
H     1.556000000    -1.655000000     0.688000000
C    -0.399000000    -1.398000000    -0.031000000
H    -0.624000000    -2.460000000     0.021000000
C    -1.404000000    -0.521000000    -0.405000000
C    -2.613000000    -0.990000000    -1.012000000
O    -3.218000000    -0.359000000    -1.857000000
O    -2.944000000    -2.130000000    -0.887000000
