14
-83.36420
C    -1.449000000    -0.300000000    -0.359000000
H    -2.514000000    -0.440000000    -0.525000000
C    -0.974000000     0.786000000     0.348000000
H    -1.677000000     1.515000000     0.743000000
C     0.413000000     1.042000000     0.561000000
H     0.818000000     1.896000000     1.111000000
C     1.283000000     0.006000000     0.217000000
H     2.335000000     0.248000000     0.346000000
C     0.793000000    -1.135000000    -0.462000000
H     1.539000000    -1.877000000    -0.734000000
C    -0.590000000    -1.294000000    -0.787000000
C    -0.998000000    -2.484000000    -1.552000000
O    -2.157000000    -2.407000000    -1.967000000
O    -0.220000000    -3.261000000    -1.990000000
