14
-82.74885
C    -1.277000000     0.210000000    -0.608000000
H    -2.290000000     0.227000000    -1.003000000
C    -0.959000000     0.447000000     0.686000000
H    -1.787000000     0.767000000     1.314000000
C     0.379000000     0.350000000     1.145000000
H     0.551000000     0.526000000     2.248000000
C     1.384000000    -0.129000000     0.300000000
H     2.360000000    -0.023000000     0.766000000
C     1.017000000    -0.520000000    -0.985000000
H     1.724000000    -0.920000000    -1.707000000
C    -0.341000000    -0.401000000    -1.444000000
C    -0.743000000    -0.806000000    -2.915000000
O    -1.875000000    -0.735000000    -3.277000000
O     0.116000000    -1.139000000    -3.716000000
