14
-87.21024
C    -1.446000000     0.394000000    -0.250000000
H    -2.401000000     0.909000000    -0.310000000
C    -0.744000000     0.680000000     0.906000000
H    -1.088000000     1.385000000     1.659000000
C     0.611000000     0.182000000     1.011000000
H     1.205000000     0.452000000     1.883000000
C     1.183000000    -0.547000000     0.042000000
H     2.213000000    -0.877000000     0.146000000
C     0.446000000    -0.878000000    -1.092000000
H     0.882000000    -1.543000000    -1.834000000
C    -0.862000000    -0.465000000    -1.199000000
C    -1.509000000    -0.610000000    -2.610000000
O    -2.714000000    -0.414000000    -2.696000000
O    -0.849000000    -0.964000000    -3.551000000
