14
-80.87906
C    -0.842000000    -0.895000000    -0.944000000
H    -1.472000000    -1.542000000    -1.549000000
C    -1.370000000     0.030000000    -0.078000000
H    -2.423000000     0.298000000    -0.108000000
C    -0.519000000     0.860000000     0.700000000
H    -0.907000000     1.722000000     1.309000000
C     0.888000000     0.716000000     0.677000000
H     1.493000000     1.443000000     1.211000000
C     1.452000000    -0.308000000    -0.066000000
H     2.535000000    -0.392000000    -0.008000000
C     0.613000000    -1.141000000    -0.897000000
C     1.327000000    -2.186000000    -1.668000000
O     0.886000000    -3.313000000    -1.816000000
O     2.472000000    -1.983000000    -1.984000000
