14
-85.10657
C     0.090000000    -1.450000000    -0.475000000
H     0.087000000    -2.524000000    -0.644000000
C    -1.073000000    -0.839000000     0.019000000
H    -2.000000000    -1.406000000     0.056000000
C    -1.071000000     0.527000000     0.342000000
H    -2.056000000     1.003000000     0.668000000
C     0.148000000     1.259000000     0.223000000
H     0.125000000     2.328000000     0.418000000
C     1.335000000     0.667000000    -0.161000000
H     2.206000000     1.282000000    -0.377000000
C     1.348000000    -0.708000000    -0.473000000
C     2.612000000    -1.422000000    -0.795000000
O     2.659000000    -2.613000000    -0.620000000
O     3.628000000    -0.744000000    -0.873000000
