14
-87.68936
C     0.370000000    -1.330000000     0.573000000
H     0.510000000    -2.356000000     0.904000000
C    -0.894000000    -0.732000000     0.637000000
H    -1.587000000    -1.281000000     1.270000000
C    -1.149000000     0.578000000     0.176000000
H    -2.140000000     1.067000000     0.296000000
C    -0.048000000     1.239000000    -0.451000000
H    -0.185000000     2.256000000    -0.808000000
C     1.229000000     0.612000000    -0.566000000
H     2.025000000     1.045000000    -1.167000000
C     1.423000000    -0.669000000    -0.065000000
C     2.765000000    -1.454000000    -0.323000000
O     2.959000000    -2.597000000     0.038000000
O     3.602000000    -0.905000000    -0.999000000
