14
-83.47298
C     1.343000000    -0.358000000     0.196000000
H     2.285000000    -0.889000000     0.313000000
C     0.289000000    -0.674000000     1.083000000
H     0.373000000    -1.203000000     2.029000000
C    -0.940000000    -0.198000000     0.714000000
H    -1.779000000    -0.200000000     1.458000000
C    -1.099000000     0.501000000    -0.472000000
H    -2.101000000     0.844000000    -0.714000000
C    -0.069000000     0.821000000    -1.321000000
H    -0.259000000     1.409000000    -2.216000000
C     1.213000000     0.314000000    -0.972000000
C     2.362000000     0.503000000    -1.887000000
O     3.488000000     0.658000000    -1.404000000
O     2.262000000     0.429000000    -3.082000000
