14
-89.49596
C     1.255000000    -0.722000000    -0.053000000
H     2.167000000    -1.311000000    -0.106000000
C     0.155000000    -1.128000000     0.688000000
H     0.259000000    -2.018000000     1.303000000
C    -0.979000000    -0.413000000     0.593000000
H    -1.847000000    -0.764000000     1.141000000
C    -1.034000000     0.749000000    -0.150000000
H    -1.925000000     1.369000000    -0.080000000
C     0.073000000     1.200000000    -0.836000000
H     0.009000000     2.060000000    -1.498000000
C     1.261000000     0.411000000    -0.782000000
C     2.425000000     0.850000000    -1.664000000
O     3.115000000     0.020000000    -2.211000000
O     2.697000000     2.045000000    -1.678000000
