14
-88.27895
C     0.839000000    -1.172000000    -0.263000000
H     1.458000000    -2.009000000    -0.575000000
C    -0.507000000    -1.041000000    -0.610000000
H    -1.018000000    -1.858000000    -1.113000000
C    -1.179000000     0.126000000    -0.310000000
H    -2.224000000     0.222000000    -0.547000000
C    -0.538000000     1.123000000     0.402000000
H    -1.093000000     2.048000000     0.533000000
C     0.772000000     0.967000000     0.845000000
H     1.313000000     1.716000000     1.417000000
C     1.536000000    -0.161000000     0.416000000
C     2.986000000    -0.252000000     0.696000000
O     3.612000000    -0.997000000    -0.033000000
O     3.534000000     0.345000000     1.572000000
