14
-79.82369
C     0.422000000     0.932000000     1.082000000
H     0.682000000     1.440000000     2.007000000
C    -0.153000000    -0.339000000     1.181000000
H    -0.354000000    -0.745000000     2.169000000
C    -0.536000000    -1.081000000     0.155000000
H    -0.937000000    -2.043000000     0.377000000
C    -0.388000000    -0.576000000    -1.095000000
H    -0.647000000    -1.146000000    -1.984000000
C     0.243000000     0.647000000    -1.299000000
H     0.414000000     1.086000000    -2.279000000
C     0.576000000     1.431000000    -0.226000000
C     1.269000000     2.746000000    -0.467000000
O     1.311000000     3.640000000     0.359000000
O     1.877000000     2.980000000    -1.499000000
