14
-89.24939
C     0.948000000     1.175000000     0.242000000
H     1.600000000     1.996000000     0.528000000
C     0.460000000     0.162000000     1.134000000
H     0.790000000     0.309000000     2.159000000
C    -0.392000000    -0.890000000     0.824000000
H    -0.618000000    -1.684000000     1.557000000
C    -0.907000000    -0.944000000    -0.497000000
H    -1.500000000    -1.766000000    -0.888000000
C    -0.526000000     0.100000000    -1.353000000
H    -0.989000000     0.184000000    -2.333000000
C     0.416000000     1.111000000    -1.006000000
C     0.958000000     2.072000000    -2.131000000
O     2.098000000     2.575000000    -2.039000000
O     0.212000000     2.416000000    -3.089000000
