14
-85.89000
C     0.354000000     0.789000000     1.222000000
H     0.536000000     1.194000000     2.214000000
C    -0.131000000    -0.524000000     1.102000000
H    -0.236000000    -1.160000000     1.978000000
C    -0.658000000    -1.052000000    -0.060000000
H    -1.014000000    -2.082000000    -0.035000000
C    -0.471000000    -0.407000000    -1.282000000
H    -0.682000000    -0.905000000    -2.225000000
C     0.068000000     0.847000000    -1.241000000
H     0.161000000     1.458000000    -2.135000000
C     0.625000000     1.434000000    -0.011000000
C     1.246000000     2.840000000     0.103000000
O     1.436000000     3.408000000     1.206000000
O     1.581000000     3.333000000    -0.958000000
