14
-87.26066
C     0.844000000     1.017000000     0.750000000
H     1.446000000     1.684000000     1.363000000
C     0.128000000    -0.079000000     1.403000000
H     0.224000000    -0.315000000     2.459000000
C    -0.618000000    -0.987000000     0.529000000
H    -1.048000000    -1.931000000     0.928000000
C    -0.683000000    -0.677000000    -0.837000000
H    -1.212000000    -1.368000000    -1.488000000
C     0.073000000     0.367000000    -1.378000000
H     0.098000000     0.434000000    -2.463000000
C     0.828000000     1.261000000    -0.653000000
C     1.506000000     2.418000000    -1.344000000
O     2.235000000     3.177000000    -0.689000000
O     1.285000000     2.633000000    -2.532000000
