14
-81.83275
C     1.071000000     0.996000000     0.471000000
H     1.906000000     1.552000000     0.888000000
C     0.822000000    -0.259000000     1.029000000
H     1.313000000    -0.631000000     1.926000000
C    -0.323000000    -1.027000000     0.550000000
H    -0.535000000    -2.050000000     1.008000000
C    -1.053000000    -0.595000000    -0.511000000
H    -1.875000000    -1.247000000    -0.794000000
C    -0.691000000     0.509000000    -1.188000000
H    -1.147000000     0.696000000    -2.156000000
C     0.354000000     1.318000000    -0.672000000
C     0.631000000     2.639000000    -1.377000000
O     1.565000000     3.379000000    -1.029000000
O     0.065000000     2.923000000    -2.410000000
