14
-86.88669
C     0.781000000     1.232000000     0.161000000
H     1.398000000     2.072000000     0.469000000
C     1.013000000     0.043000000     0.798000000
H     1.914000000    -0.069000000     1.395000000
C     0.217000000    -1.054000000     0.573000000
H     0.302000000    -2.019000000     1.045000000
C    -0.768000000    -0.989000000    -0.370000000
H    -1.453000000    -1.818000000    -0.522000000
C    -0.983000000     0.179000000    -1.129000000
H    -1.779000000     0.215000000    -1.868000000
C    -0.278000000     1.354000000    -0.808000000
C    -0.701000000     2.681000000    -1.441000000
O    -0.126000000     3.742000000    -1.212000000
O    -1.537000000     2.682000000    -2.331000000
