14
-83.35879
C     0.363000000     0.930000000     1.137000000
H     0.517000000     1.466000000     2.070000000
C     0.003000000    -0.414000000     1.313000000
H    -0.093000000    -0.907000000     2.277000000
C    -0.397000000    -1.137000000     0.182000000
H    -0.735000000    -2.170000000     0.287000000
C    -0.361000000    -0.564000000    -1.113000000
H    -0.625000000    -1.178000000    -1.971000000
C     0.099000000     0.663000000    -1.245000000
H     0.337000000     1.039000000    -2.237000000
C     0.472000000     1.476000000    -0.138000000
C     0.896000000     2.916000000    -0.348000000
O     1.288000000     3.702000000     0.487000000
O     0.874000000     3.342000000    -1.501000000
