14
-81.30345
C     1.062000000     0.232000000    -0.956000000
H     1.947000000     0.279000000    -1.585000000
C     1.208000000    -0.106000000     0.423000000
H     2.182000000    -0.282000000     0.872000000
C     0.124000000    -0.294000000     1.238000000
H     0.183000000    -0.566000000     2.316000000
C    -1.130000000    -0.128000000     0.659000000
H    -2.085000000    -0.158000000     1.177000000
C    -1.283000000     0.266000000    -0.656000000
H    -2.255000000     0.599000000    -1.013000000
C    -0.180000000     0.391000000    -1.537000000
C    -0.379000000     0.775000000    -3.012000000
O     0.537000000     1.211000000    -3.660000000
O    -1.337000000     0.407000000    -3.639000000
