14
-81.70104
C     0.914000000    -0.141000000    -1.206000000
H     1.653000000    -0.171000000    -2.003000000
C     1.181000000     0.604000000    -0.069000000
H     2.156000000     1.063000000     0.069000000
C     0.262000000     0.619000000     1.016000000
H     0.579000000     1.132000000     1.924000000
C    -0.965000000    -0.095000000     0.910000000
H    -1.723000000     0.007000000     1.682000000
C    -1.203000000    -0.784000000    -0.217000000
H    -2.130000000    -1.347000000    -0.290000000
C    -0.287000000    -0.834000000    -1.292000000
C    -0.779000000    -1.430000000    -2.640000000
O    -0.078000000    -1.249000000    -3.613000000
O    -1.866000000    -1.851000000    -2.828000000
