14
-90.62131
C     0.450000000     0.724000000    -1.137000000
H     0.964000000     1.211000000    -1.961000000
C     1.224000000     0.250000000    -0.065000000
H     2.287000000     0.470000000    -0.026000000
C     0.612000000    -0.485000000     0.946000000
H     1.128000000    -0.787000000     1.824000000
C    -0.760000000    -0.747000000     0.892000000
H    -1.270000000    -1.184000000     1.747000000
C    -1.479000000    -0.244000000    -0.219000000
H    -2.549000000    -0.433000000    -0.224000000
C    -0.888000000     0.507000000    -1.266000000
C    -1.645000000     1.053000000    -2.469000000
O    -1.183000000     2.007000000    -3.111000000
O    -2.723000000     0.605000000    -2.753000000
