14
-89.02898
C     0.604000000    -1.291000000    -0.165000000
H     1.046000000    -2.283000000    -0.141000000
C     0.214000000    -0.748000000     0.995000000
H     0.364000000    -1.294000000     1.923000000
C    -0.468000000     0.415000000     1.047000000
H    -0.888000000     0.895000000     1.977000000
C    -0.633000000     1.164000000    -0.110000000
H    -1.210000000     2.085000000    -0.087000000
C    -0.111000000     0.695000000    -1.321000000
H    -0.277000000     1.271000000    -2.228000000
C     0.571000000    -0.555000000    -1.361000000
C     1.011000000    -1.202000000    -2.657000000
O     1.033000000    -0.530000000    -3.684000000
O     1.327000000    -2.394000000    -2.673000000
