14
-83.74129
C    -0.169000000    -0.734000000    -1.183000000
H    -0.319000000    -1.385000000    -2.040000000
C     0.894000000    -0.855000000    -0.392000000
H     1.772000000    -1.484000000    -0.520000000
C     0.926000000    -0.067000000     0.744000000
H     1.762000000    -0.121000000     1.464000000
C    -0.036000000     0.824000000     1.088000000
H     0.015000000     1.396000000     2.011000000
C    -1.138000000     0.953000000     0.227000000
H    -1.906000000     1.716000000     0.325000000
C    -1.259000000     0.120000000    -0.919000000
C    -2.420000000     0.195000000    -1.835000000
O    -2.325000000    -0.364000000    -2.965000000
O    -3.487000000     0.580000000    -1.468000000
