14
-81.69802
C     0.272000000    -0.530000000    -1.311000000
H     0.587000000    -1.108000000    -2.176000000
C     1.119000000    -0.658000000    -0.268000000
H     2.083000000    -1.155000000    -0.338000000
C     0.730000000    -0.073000000     0.946000000
H     1.398000000    -0.192000000     1.767000000
C    -0.366000000     0.720000000     1.071000000
H    -0.569000000     1.239000000     2.004000000
C    -1.246000000     0.886000000    -0.069000000
H    -2.205000000     1.396000000    -0.026000000
C    -0.931000000     0.177000000    -1.263000000
C    -1.958000000     0.114000000    -2.400000000
O    -1.698000000    -0.247000000    -3.517000000
O    -3.153000000     0.340000000    -2.203000000
