14
-90.55029
C    -0.119000000    -0.671000000    -1.324000000
H    -0.283000000    -1.255000000    -2.225000000
C     0.850000000    -0.957000000    -0.378000000
H     1.557000000    -1.704000000    -0.728000000
C     0.939000000    -0.194000000     0.796000000
H     1.783000000    -0.238000000     1.452000000
C     0.018000000     0.844000000     1.066000000
H     0.268000000     1.570000000     1.835000000
C    -1.043000000     1.089000000     0.157000000
H    -1.647000000     1.984000000     0.278000000
C    -1.100000000     0.314000000    -1.049000000
C    -2.289000000     0.520000000    -2.002000000
O    -2.494000000    -0.427000000    -2.785000000
O    -3.032000000     1.486000000    -1.901000000
