14
-82.53192
C     0.769000000    -1.291000000    -0.107000000
H     1.433000000    -2.148000000    -0.041000000
C     0.695000000    -0.449000000     1.042000000
H     1.418000000    -0.521000000     1.850000000
C    -0.193000000     0.597000000     1.089000000
H    -0.290000000     1.229000000     1.908000000
C    -0.992000000     0.812000000    -0.053000000
H    -1.634000000     1.688000000    -0.040000000
C    -0.940000000     0.055000000    -1.196000000
H    -1.575000000     0.386000000    -2.014000000
C    -0.042000000    -1.029000000    -1.222000000
C     0.353000000    -1.554000000    -2.625000000
O     1.039000000    -2.505000000    -2.754000000
O    -0.153000000    -1.039000000    -3.614000000
