14
-84.30533
C     0.406000000    -1.111000000    -0.849000000
H     0.792000000    -1.939000000    -1.438000000
C     0.954000000    -0.771000000     0.399000000
H     1.847000000    -1.232000000     0.813000000
C     0.420000000     0.303000000     1.110000000
H     0.922000000     0.627000000     2.010000000
C    -0.722000000     0.949000000     0.678000000
H    -1.235000000     1.646000000     1.336000000
C    -1.250000000     0.601000000    -0.609000000
H    -2.051000000     1.243000000    -0.967000000
C    -0.657000000    -0.404000000    -1.399000000
C    -1.118000000    -0.673000000    -2.772000000
O    -0.741000000    -1.682000000    -3.368000000
O    -1.836000000     0.043000000    -3.405000000
