14
-86.03805
C    -0.405000000    -0.867000000    -1.137000000
H    -0.367000000    -1.524000000    -2.002000000
C     0.551000000     0.156000000    -1.162000000
H     1.175000000     0.403000000    -2.016000000
C     0.736000000     0.950000000    -0.026000000
H     1.359000000     1.873000000    -0.115000000
C     0.075000000     0.723000000     1.143000000
H     0.384000000     1.373000000     1.958000000
C    -0.843000000    -0.354000000     1.156000000
H    -1.364000000    -0.532000000     2.094000000
C    -1.045000000    -1.172000000     0.048000000
C    -2.033000000    -2.364000000     0.183000000
O    -2.018000000    -3.293000000    -0.682000000
O    -2.907000000    -2.247000000     0.972000000
