14
-83.67476
C     0.089000000    -1.490000000     0.130000000
H     0.293000000    -2.555000000     0.209000000
C     1.146000000    -0.655000000    -0.182000000
H     2.148000000    -1.021000000    -0.390000000
C     0.998000000     0.686000000    -0.273000000
H     1.805000000     1.420000000    -0.482000000
C    -0.319000000     1.261000000    -0.083000000
H    -0.529000000     2.322000000    -0.199000000
C    -1.383000000     0.436000000     0.316000000
H    -2.385000000     0.855000000     0.283000000
C    -1.219000000    -0.971000000     0.326000000
C    -2.340000000    -1.824000000     0.780000000
O    -2.119000000    -3.034000000     0.875000000
O    -3.222000000    -1.279000000     1.431000000
