14
-80.67049
C     0.362000000    -1.385000000     0.308000000
H     0.692000000    -2.421000000     0.307000000
C     1.241000000    -0.435000000    -0.120000000
H     2.239000000    -0.821000000    -0.309000000
C     0.783000000     0.877000000    -0.369000000
H     1.508000000     1.707000000    -0.578000000
C    -0.556000000     1.235000000    -0.053000000
H    -0.892000000     2.268000000    -0.085000000
C    -1.392000000     0.240000000     0.406000000
H    -2.455000000     0.448000000     0.500000000
C    -0.999000000    -1.052000000     0.460000000
C    -1.995000000    -2.116000000     0.834000000
O    -1.653000000    -3.267000000     0.803000000
O    -3.149000000    -1.900000000     1.148000000
