14
-75.51393
C     0.087000000    -1.289000000     0.742000000
H     0.140000000    -2.048000000     1.518000000
C     1.103000000    -0.378000000     0.627000000
H     1.896000000    -0.416000000     1.369000000
C     0.985000000     0.726000000    -0.236000000
H     1.831000000     1.406000000    -0.227000000
C    -0.217000000     0.934000000    -0.972000000
H    -0.225000000     1.732000000    -1.709000000
C    -1.267000000     0.066000000    -0.709000000
H    -2.248000000     0.309000000    -1.109000000
C    -1.158000000    -0.995000000     0.143000000
C    -2.313000000    -2.019000000     0.312000000
O    -2.287000000    -2.896000000     1.206000000
O    -3.497000000    -1.656000000     0.052000000
