14
-80.97749
C     0.173000000    -1.276000000    -0.784000000
H     0.399000000    -2.249000000    -1.213000000
C     1.179000000    -0.261000000    -0.622000000
H     2.170000000    -0.336000000    -1.063000000
C     0.859000000     0.824000000     0.198000000
H     1.579000000     1.570000000     0.557000000
C    -0.419000000     1.038000000     0.694000000
H    -0.569000000     1.989000000     1.200000000
C    -1.404000000     0.140000000     0.364000000
H    -2.378000000     0.330000000     0.808000000
C    -1.125000000    -1.081000000    -0.191000000
C    -2.197000000    -2.086000000    -0.328000000
O    -1.894000000    -3.214000000    -0.694000000
O    -3.347000000    -1.764000000    -0.319000000
