14
-85.19987
C     1.314000000    -0.240000000     0.595000000
H     2.273000000    -0.355000000     1.093000000
C     0.171000000     0.127000000     1.258000000
H     0.153000000     0.434000000     2.301000000
C    -1.075000000     0.286000000     0.578000000
H    -1.919000000     0.552000000     1.079000000
C    -1.122000000    -0.009000000    -0.731000000
H    -2.069000000    -0.088000000    -1.257000000
C     0.078000000    -0.244000000    -1.433000000
H     0.081000000    -0.410000000    -2.507000000
C     1.330000000    -0.482000000    -0.799000000
C     2.636000000    -0.757000000    -1.577000000
O     2.596000000    -1.090000000    -2.746000000
O     3.713000000    -0.513000000    -1.073000000
