14
-76.17021
C     0.259000000    -1.437000000     0.573000000
H     0.367000000    -2.456000000     0.937000000
C     1.094000000    -0.748000000    -0.377000000
H     2.004000000    -1.237000000    -0.716000000
C     0.729000000     0.493000000    -0.862000000
H     1.339000000     0.975000000    -1.752000000
C    -0.414000000     1.128000000    -0.410000000
H    -0.663000000     2.129000000    -0.752000000
C    -1.198000000     0.495000000     0.554000000
H    -2.030000000     1.046000000     0.986000000
C    -0.902000000    -0.804000000     1.049000000
C    -1.858000000    -1.388000000     1.998000000
O    -1.786000000    -2.518000000     2.367000000
O    -2.863000000    -0.824000000     2.334000000
