14
-81.65171
C     0.072000000    -1.477000000    -0.153000000
H     0.313000000    -2.536000000    -0.193000000
C     0.776000000    -0.551000000    -0.940000000
H     1.502000000    -0.801000000    -1.710000000
C     0.592000000     0.822000000    -0.695000000
H     1.258000000     1.549000000    -1.216000000
C    -0.288000000     1.249000000     0.312000000
H    -0.388000000     2.325000000     0.425000000
C    -0.985000000     0.305000000     1.049000000
H    -1.563000000     0.808000000     1.819000000
C    -0.750000000    -1.031000000     0.867000000
C    -1.622000000    -2.063000000     1.621000000
O    -1.548000000    -3.209000000     1.376000000
O    -2.582000000    -1.649000000     2.268000000
