14
-88.13887
C     0.569000000    -0.849000000     1.062000000
H     0.884000000    -1.651000000     1.723000000
C     1.143000000    -0.689000000    -0.149000000
H     2.005000000    -1.290000000    -0.428000000
C     0.520000000     0.162000000    -1.091000000
H     0.870000000     0.343000000    -2.140000000
C    -0.636000000     0.854000000    -0.734000000
H    -1.120000000     1.501000000    -1.460000000
C    -1.140000000     0.764000000     0.521000000
H    -2.005000000     1.337000000     0.844000000
C    -0.551000000    -0.143000000     1.444000000
C    -1.187000000    -0.440000000     2.770000000
O    -0.480000000    -0.880000000     3.659000000
O    -2.319000000    -0.068000000     2.958000000
