14
-80.47505
C    -1.052000000     0.167000000     1.001000000
H    -1.863000000     0.103000000     1.722000000
C    -0.607000000    -1.057000000     0.460000000
H    -1.127000000    -1.965000000     0.755000000
C     0.406000000    -1.038000000    -0.472000000
H     0.740000000    -1.937000000    -0.926000000
C     0.929000000     0.157000000    -0.985000000
H     1.666000000     0.042000000    -1.775000000
C     0.585000000     1.345000000    -0.329000000
H     1.054000000     2.323000000    -0.409000000
C    -0.404000000     1.376000000     0.639000000
C    -0.894000000     2.677000000     1.257000000
O    -1.682000000     2.765000000     2.187000000
O    -0.506000000     3.678000000     0.787000000
