14
-89.20529
C    -1.131000000     0.597000000     0.764000000
H    -2.016000000     0.921000000     1.306000000
C    -1.252000000    -0.428000000    -0.145000000
H    -2.193000000    -0.915000000    -0.392000000
C    -0.121000000    -0.898000000    -0.816000000
H    -0.213000000    -1.675000000    -1.604000000
C     1.175000000    -0.318000000    -0.602000000
H     2.072000000    -0.599000000    -1.148000000
C     1.226000000     0.767000000     0.291000000
H     2.229000000     1.136000000     0.490000000
C     0.083000000     1.301000000     0.971000000
C     0.275000000     2.341000000     2.083000000
O    -0.742000000     2.717000000     2.663000000
O     1.365000000     2.746000000     2.452000000
