14
-84.94394
C    -0.821000000    -0.267000000     1.149000000
H    -1.456000000    -0.526000000     1.993000000
C    -0.535000000    -1.236000000     0.152000000
H    -0.936000000    -2.247000000     0.133000000
C     0.239000000    -0.790000000    -0.913000000
H     0.481000000    -1.590000000    -1.623000000
C     0.684000000     0.477000000    -1.019000000
H     1.244000000     0.827000000    -1.883000000
C     0.378000000     1.454000000     0.010000000
H     0.756000000     2.463000000    -0.136000000
C    -0.322000000     1.069000000     1.150000000
C    -0.567000000     2.074000000     2.242000000
O    -1.436000000     1.790000000     3.034000000
O     0.071000000     3.102000000     2.458000000
