14
-82.42965
C    -0.386000000    -0.065000000     1.477000000
H    -0.681000000    -0.223000000     2.511000000
C    -0.631000000    -1.101000000     0.567000000
H    -1.119000000    -2.027000000     0.862000000
C    -0.311000000    -0.881000000    -0.768000000
H    -0.544000000    -1.626000000    -1.509000000
C     0.297000000     0.288000000    -1.221000000
H     0.561000000     0.359000000    -2.273000000
C     0.682000000     1.249000000    -0.275000000
H     1.275000000     2.118000000    -0.547000000
C     0.294000000     1.153000000     1.065000000
C     0.649000000     2.249000000     1.983000000
O     0.779000000     1.966000000     3.159000000
O     0.824000000     3.372000000     1.670000000
