14
-86.13212
C    -0.006000000    -0.376000000     1.434000000
H     0.013000000    -0.799000000     2.435000000
C    -0.134000000    -1.235000000     0.405000000
H    -0.143000000    -2.295000000     0.647000000
C    -0.041000000    -0.756000000    -0.914000000
H    -0.169000000    -1.342000000    -1.788000000
C     0.010000000     0.584000000    -1.231000000
H    -0.023000000     0.924000000    -2.263000000
C     0.081000000     1.501000000    -0.177000000
H     0.351000000     2.544000000    -0.315000000
C     0.053000000     1.007000000     1.202000000
C     0.124000000     2.014000000     2.287000000
O     0.177000000     1.646000000     3.476000000
O     0.008000000     3.199000000     2.008000000
