14
-82.88428
C     0.761000000    -1.122000000     0.625000000
H     1.435000000    -1.895000000     0.986000000
C    -0.004000000    -1.185000000    -0.488000000
H     0.127000000    -2.024000000    -1.167000000
C    -0.816000000    -0.173000000    -0.967000000
H    -1.220000000    -0.193000000    -1.998000000
C    -0.955000000     0.980000000    -0.215000000
H    -1.400000000     1.908000000    -0.564000000
C    -0.285000000     1.077000000     1.023000000
H    -0.389000000     1.984000000     1.613000000
C     0.705000000     0.106000000     1.383000000
C     1.639000000     0.221000000     2.613000000
O     2.468000000    -0.664000000     2.805000000
O     1.809000000     1.314000000     3.115000000
