14
-82.56863
C    -0.764000000    -0.825000000     0.966000000
H    -1.252000000    -1.529000000     1.635000000
C    -0.447000000    -1.251000000    -0.278000000
H    -0.777000000    -2.202000000    -0.688000000
C     0.308000000    -0.356000000    -1.130000000
H     0.668000000    -0.735000000    -2.148000000
C     0.790000000     0.827000000    -0.667000000
H     1.408000000     1.517000000    -1.236000000
C     0.314000000     1.219000000     0.558000000
H     0.723000000     2.173000000     0.882000000
C    -0.489000000     0.455000000     1.421000000
C    -0.790000000     0.890000000     2.818000000
O    -0.921000000     0.102000000     3.722000000
O    -1.049000000     2.068000000     2.951000000
