14
-87.46440
C     1.104000000    -0.922000000    -0.268000000
H     2.016000000    -1.442000000    -0.551000000
C     0.143000000    -0.506000000    -1.206000000
H     0.399000000    -0.526000000    -2.262000000
C    -0.851000000     0.352000000    -0.847000000
H    -1.495000000     0.947000000    -1.549000000
C    -1.013000000     0.634000000     0.458000000
H    -1.820000000     1.296000000     0.762000000
C    -0.177000000     0.091000000     1.447000000
H    -0.450000000     0.168000000     2.497000000
C     0.963000000    -0.634000000     1.101000000
C     2.016000000    -1.042000000     2.121000000
O     2.695000000    -2.062000000     1.907000000
O     2.222000000    -0.328000000     3.131000000
