14
-74.16575
C     1.309000000    -0.627000000     0.274000000
H     2.317000000    -1.001000000     0.434000000
C     0.849000000    -0.280000000    -1.045000000
H     1.311000000    -0.580000000    -1.983000000
C    -0.429000000     0.289000000    -1.124000000
H    -0.766000000     0.656000000    -2.022000000
C    -1.156000000     0.560000000     0.030000000
H    -2.152000000     0.976000000    -0.092000000
C    -0.681000000     0.178000000     1.268000000
H    -1.330000000     0.320000000     2.129000000
C     0.591000000    -0.347000000     1.480000000
C     1.070000000    -0.700000000     2.842000000
O     2.150000000    -1.142000000     2.988000000
O     0.520000000    -0.189000000     3.770000000
