14
-82.15608
C     0.073000000    -1.239000000     0.742000000
H     0.176000000    -2.220000000     1.199000000
C     0.120000000    -1.086000000    -0.618000000
H     0.278000000    -1.991000000    -1.198000000
C    -0.102000000     0.144000000    -1.249000000
H    -0.062000000     0.238000000    -2.327000000
C    -0.171000000     1.247000000    -0.446000000
H    -0.371000000     2.271000000    -0.750000000
C    -0.118000000     1.110000000     0.914000000
H    -0.264000000     1.993000000     1.531000000
C    -0.015000000    -0.150000000     1.534000000
C    -0.139000000    -0.288000000     3.047000000
O     0.141000000    -1.316000000     3.622000000
O    -0.293000000     0.688000000     3.798000000
