14
-88.95957
C     1.319000000    -0.590000000     0.322000000
H     2.129000000    -1.295000000     0.485000000
C     0.526000000    -0.973000000    -0.768000000
H     0.781000000    -1.736000000    -1.500000000
C    -0.667000000    -0.292000000    -0.952000000
H    -1.381000000    -0.489000000    -1.710000000
C    -1.013000000     0.805000000    -0.141000000
H    -1.972000000     1.267000000    -0.360000000
C    -0.217000000     1.133000000     0.953000000
H    -0.425000000     1.974000000     1.610000000
C     0.913000000     0.373000000     1.246000000
C     1.737000000     0.749000000     2.443000000
O     2.897000000     0.435000000     2.333000000
O     1.258000000     1.277000000     3.446000000
