14
-88.56047
C     1.201000000    -0.736000000     0.433000000
H     2.091000000    -1.324000000     0.643000000
C     0.028000000    -1.285000000    -0.051000000
H    -0.078000000    -2.353000000    -0.225000000
C    -1.053000000    -0.491000000    -0.293000000
H    -1.956000000    -0.953000000    -0.713000000
C    -1.015000000     0.883000000    -0.027000000
H    -1.868000000     1.531000000    -0.207000000
C     0.161000000     1.391000000     0.446000000
H     0.162000000     2.478000000     0.429000000
C     1.328000000     0.634000000     0.540000000
C     2.627000000     1.314000000     0.858000000
O     3.632000000     0.644000000     0.992000000
O     2.664000000     2.535000000     1.010000000
