14
-82.85016
C     1.270000000    -0.390000000     0.657000000
H     2.119000000    -0.888000000     1.118000000
C     0.472000000    -1.143000000    -0.144000000
H     0.582000000    -2.165000000    -0.496000000
C    -0.697000000    -0.615000000    -0.695000000
H    -1.303000000    -1.276000000    -1.303000000
C    -1.104000000     0.680000000    -0.467000000
H    -2.090000000     0.950000000    -0.838000000
C    -0.226000000     1.424000000     0.260000000
H    -0.393000000     2.469000000     0.508000000
C     0.945000000     0.938000000     0.864000000
C     1.773000000     1.745000000     1.803000000
O     2.832000000     1.337000000     2.185000000
O     1.386000000     2.856000000     2.098000000
