14
-89.45490
C     1.274000000    -0.078000000    -0.739000000
H     2.155000000    -0.059000000    -1.375000000
C     0.476000000     1.026000000    -0.640000000
H     0.808000000     1.911000000    -1.175000000
C    -0.699000000     1.006000000     0.087000000
H    -1.309000000     1.927000000     0.243000000
C    -1.086000000    -0.143000000     0.725000000
H    -2.089000000    -0.230000000     1.136000000
C    -0.309000000    -1.315000000     0.598000000
H    -0.695000000    -2.243000000     1.013000000
C     0.909000000    -1.266000000    -0.117000000
C     1.742000000    -2.517000000    -0.095000000
O     1.481000000    -3.460000000     0.647000000
O     2.842000000    -2.523000000    -0.664000000
