14
-85.19918
C     0.583000000    -0.827000000     1.227000000
H     0.846000000    -1.495000000     2.043000000
C    -0.515000000    -1.212000000     0.370000000
H    -1.046000000    -2.115000000     0.659000000
C    -0.905000000    -0.455000000    -0.700000000
H    -1.679000000    -0.869000000    -1.380000000
C    -0.301000000     0.785000000    -0.911000000
H    -0.587000000     1.489000000    -1.688000000
C     0.797000000     1.151000000    -0.209000000
H     1.340000000     2.055000000    -0.468000000
C     1.203000000     0.433000000     0.926000000
C     2.361000000     0.994000000     1.759000000
O     2.767000000     0.375000000     2.704000000
O     2.774000000     2.089000000     1.499000000
