14
-80.75302
C    -0.453000000    -0.455000000     1.306000000
H    -0.933000000    -0.985000000     2.125000000
C    -0.974000000    -0.792000000     0.042000000
H    -1.746000000    -1.557000000     0.050000000
C    -0.441000000    -0.280000000    -1.091000000
H    -0.808000000    -0.642000000    -2.047000000
C     0.536000000     0.687000000    -1.039000000
H     0.872000000     1.169000000    -1.953000000
C     1.156000000     0.931000000     0.159000000
H     1.972000000     1.640000000     0.276000000
C     0.695000000     0.316000000     1.405000000
C     1.426000000     0.529000000     2.733000000
O     0.951000000     0.124000000     3.770000000
O     2.273000000     1.405000000     2.852000000
