14
-77.64832
C     0.498000000    -1.026000000     1.026000000
H     0.737000000    -1.865000000     1.674000000
C    -0.778000000    -1.024000000     0.394000000
H    -1.571000000    -1.760000000     0.505000000
C    -1.075000000    -0.050000000    -0.586000000
H    -2.007000000     0.019000000    -1.046000000
C    -0.090000000     0.896000000    -0.922000000
H    -0.397000000     1.697000000    -1.591000000
C     1.099000000     0.939000000    -0.205000000
H     1.737000000     1.785000000    -0.447000000
C     1.351000000    -0.006000000     0.820000000
C     2.599000000     0.260000000     1.619000000
O     3.014000000    -0.496000000     2.483000000
O     3.347000000     1.130000000     1.320000000
