14
-85.25366
C    -0.500000000    -0.375000000     1.284000000
H    -0.975000000    -0.793000000     2.168000000
C    -1.225000000    -0.428000000     0.115000000
H    -2.180000000    -0.915000000    -0.063000000
C    -0.664000000     0.123000000    -1.024000000
H    -1.112000000     0.150000000    -1.998000000
C     0.631000000     0.650000000    -0.951000000
H     1.099000000     0.940000000    -1.888000000
C     1.415000000     0.499000000     0.208000000
H     2.479000000     0.716000000     0.237000000
C     0.832000000     0.018000000     1.346000000
C     1.726000000    -0.289000000     2.571000000
O     1.314000000    -0.826000000     3.583000000
O     2.815000000     0.316000000     2.640000000
