14
-86.09683
C     0.316000000    -1.095000000     0.926000000
H     0.295000000    -1.895000000     1.661000000
C    -0.347000000    -1.223000000    -0.280000000
H    -0.676000000    -2.247000000    -0.439000000
C    -0.550000000    -0.139000000    -1.115000000
H    -0.951000000    -0.306000000    -2.098000000
C    -0.093000000     1.139000000    -0.690000000
H    -0.198000000     1.998000000    -1.347000000
C     0.635000000     1.286000000     0.510000000
H     0.901000000     2.292000000     0.826000000
C     0.802000000     0.145000000     1.352000000
C     1.343000000     0.283000000     2.740000000
O     1.500000000    -0.663000000     3.482000000
O     1.511000000     1.396000000     3.165000000
