14
-82.18710
C     1.416000000    -0.393000000    -0.477000000
H     2.406000000    -0.559000000    -0.894000000
C     1.056000000     0.845000000     0.129000000
H     1.860000000     1.561000000     0.280000000
C    -0.270000000     1.061000000     0.619000000
H    -0.491000000     2.017000000     1.059000000
C    -1.251000000     0.082000000     0.422000000
H    -2.283000000     0.328000000     0.661000000
C    -0.921000000    -1.137000000    -0.209000000
H    -1.663000000    -1.869000000    -0.516000000
C     0.406000000    -1.367000000    -0.643000000
C     0.670000000    -2.673000000    -1.195000000
O    -0.072000000    -3.621000000    -1.186000000
O     1.806000000    -2.954000000    -1.669000000
