14
-84.18354
C    -0.309000000    -1.455000000    -0.090000000
H    -0.635000000    -2.489000000    -0.175000000
C    -0.614000000    -0.497000000    -1.082000000
H    -1.221000000    -0.797000000    -1.932000000
C    -0.190000000     0.830000000    -0.934000000
H    -0.456000000     1.657000000    -1.545000000
C     0.420000000     1.173000000     0.221000000
H     0.689000000     2.213000000     0.388000000
C     0.726000000     0.253000000     1.192000000
H     1.176000000     0.514000000     2.146000000
C     0.350000000    -1.062000000     1.061000000
C     0.595000000    -2.044000000     2.221000000
O     0.135000000    -3.125000000     2.113000000
O     1.187000000    -1.692000000     3.195000000
