14
-87.63145
C     1.195000000    -0.579000000    -0.574000000
H     2.154000000    -0.969000000    -0.904000000
C     0.993000000     0.764000000    -0.234000000
H     1.842000000     1.397000000    -0.479000000
C    -0.140000000     1.243000000     0.370000000
H    -0.178000000     2.299000000     0.543000000
C    -1.175000000     0.280000000     0.618000000
H    -2.079000000     0.598000000     1.131000000
C    -0.988000000    -1.062000000     0.169000000
H    -1.652000000    -1.904000000     0.345000000
C     0.174000000    -1.475000000    -0.427000000
C     0.407000000    -2.907000000    -0.866000000
O    -0.554000000    -3.686000000    -0.695000000
O     1.398000000    -3.264000000    -1.446000000
