14
-88.03891
C     0.935000000    -1.075000000     0.416000000
H     1.623000000    -1.895000000     0.608000000
C     0.453000000    -0.836000000    -0.884000000
H     0.767000000    -1.464000000    -1.714000000
C    -0.372000000     0.248000000    -1.139000000
H    -0.704000000     0.390000000    -2.169000000
C    -0.880000000     1.075000000    -0.070000000
H    -1.554000000     1.889000000    -0.325000000
C    -0.454000000     0.755000000     1.216000000
H    -0.863000000     1.365000000     2.017000000
C     0.547000000    -0.263000000     1.445000000
C     1.000000000    -0.597000000     2.846000000
O     1.257000000    -1.736000000     3.153000000
O     1.177000000     0.323000000     3.586000000
