14
-79.70238
C     0.724000000    -1.256000000    -0.259000000
H     1.255000000    -2.191000000    -0.417000000
C    -0.339000000    -0.813000000    -1.076000000
H    -0.615000000    -1.309000000    -2.003000000
C    -0.926000000     0.399000000    -0.654000000
H    -1.768000000     0.736000000    -1.306000000
C    -0.439000000     1.129000000     0.424000000
H    -0.923000000     2.081000000     0.629000000
C     0.581000000     0.592000000     1.206000000
H     0.903000000     1.239000000     2.018000000
C     1.205000000    -0.542000000     0.821000000
C     2.327000000    -1.097000000     1.671000000
O     2.653000000    -2.205000000     1.549000000
O     2.791000000    -0.427000000     2.572000000
