14
-86.90379
C     0.613000000    -1.310000000    -0.028000000
H     0.978000000    -2.316000000    -0.220000000
C    -0.555000000    -0.931000000    -0.748000000
H    -1.055000000    -1.600000000    -1.444000000
C    -0.958000000     0.419000000    -0.646000000
H    -1.782000000     0.712000000    -1.253000000
C    -0.331000000     1.266000000     0.236000000
H    -0.703000000     2.286000000     0.272000000
C     0.736000000     0.742000000     1.054000000
H     1.109000000     1.384000000     1.848000000
C     1.293000000    -0.517000000     0.844000000
C     2.502000000    -1.025000000     1.603000000
O     2.776000000    -2.211000000     1.508000000
O     2.934000000    -0.323000000     2.481000000
