14
-88.62637
C     0.981000000    -0.942000000    -0.593000000
H     1.586000000    -1.703000000    -1.079000000
C    -0.005000000    -0.276000000    -1.315000000
H    -0.324000000    -0.481000000    -2.334000000
C    -0.843000000     0.652000000    -0.666000000
H    -1.735000000     1.177000000    -1.175000000
C    -0.583000000     0.963000000     0.672000000
H    -1.182000000     1.751000000     1.123000000
C     0.282000000     0.187000000     1.415000000
H     0.370000000     0.359000000     2.485000000
C     1.158000000    -0.715000000     0.810000000
C     2.203000000    -1.451000000     1.658000000
O     2.996000000    -2.104000000     1.034000000
O     2.142000000    -1.459000000     2.873000000
