14
-88.48554
C    -0.226000000    -1.218000000     0.867000000
H    -0.591000000    -2.076000000     1.427000000
C    -1.091000000    -0.709000000    -0.081000000
H    -1.999000000    -1.213000000    -0.401000000
C    -0.770000000     0.478000000    -0.854000000
H    -1.403000000     0.825000000    -1.642000000
C     0.448000000     1.075000000    -0.646000000
H     0.610000000     2.007000000    -1.181000000
C     1.350000000     0.567000000     0.333000000
H     2.328000000     1.032000000     0.419000000
C     0.996000000    -0.598000000     1.094000000
C     1.905000000    -1.106000000     2.208000000
O     1.766000000    -2.206000000     2.659000000
O     2.655000000    -0.277000000     2.741000000
