14
-89.07613
C    -1.248000000    -0.206000000    -0.778000000
H    -2.103000000    -0.370000000    -1.429000000
C     0.047000000    -0.389000000    -1.250000000
H     0.235000000    -0.719000000    -2.268000000
C     1.156000000    -0.092000000    -0.446000000
H     2.199000000    -0.103000000    -0.770000000
C     0.862000000     0.316000000     0.858000000
H     1.721000000     0.491000000     1.502000000
C    -0.397000000     0.401000000     1.339000000
H    -0.501000000     0.781000000     2.352000000
C    -1.511000000     0.114000000     0.564000000
C    -2.900000000     0.195000000     1.016000000
O    -3.827000000     0.167000000     0.220000000
O    -3.150000000     0.472000000     2.216000000
