14
-88.72980
C    -0.140000000    -1.272000000    -0.855000000
H    -0.079000000    -2.090000000    -1.568000000
C     0.447000000    -0.063000000    -1.270000000
H     1.000000000     0.065000000    -2.197000000
C     0.393000000     1.018000000    -0.427000000
H     0.835000000     1.945000000    -0.856000000
C    -0.174000000     0.977000000     0.803000000
H    -0.102000000     1.867000000     1.422000000
C    -0.654000000    -0.211000000     1.310000000
H    -1.049000000    -0.217000000     2.323000000
C    -0.658000000    -1.350000000     0.456000000
C    -1.080000000    -2.664000000     1.026000000
O    -1.585000000    -3.483000000     0.270000000
O    -1.071000000    -2.809000000     2.237000000
