14
-81.41104
C     0.931000000    -0.573000000    -1.051000000
H     1.437000000    -0.885000000    -1.961000000
C     0.993000000     0.718000000    -0.608000000
H     1.658000000     1.440000000    -1.076000000
C     0.197000000     1.148000000     0.547000000
H     0.270000000     2.190000000     0.912000000
C    -0.817000000     0.292000000     0.991000000
H    -1.566000000     0.620000000     1.707000000
C    -0.941000000    -0.981000000     0.528000000
H    -1.721000000    -1.629000000     0.919000000
C     0.007000000    -1.502000000    -0.428000000
C    -0.143000000    -2.929000000    -0.850000000
O    -0.965000000    -3.648000000    -0.343000000
O     0.466000000    -3.345000000    -1.807000000
