14
-80.98378
C    -0.440000000    -1.209000000    -0.749000000
H    -0.780000000    -1.964000000    -1.452000000
C     0.500000000    -0.281000000    -1.208000000
H     0.906000000    -0.295000000    -2.216000000
C     0.688000000     0.840000000    -0.432000000
H     1.390000000     1.608000000    -0.848000000
C     0.198000000     0.962000000     0.856000000
H     0.443000000     1.832000000     1.461000000
C    -0.541000000    -0.054000000     1.326000000
H    -0.930000000     0.086000000     2.331000000
C    -1.046000000    -1.052000000     0.484000000
C    -2.096000000    -2.070000000     0.887000000
O    -2.079000000    -3.162000000     0.458000000
O    -2.833000000    -1.744000000     1.815000000
