14
-82.07788
C    -1.141000000    -0.946000000     0.044000000
H    -1.808000000    -1.797000000    -0.068000000
C    -0.238000000    -0.805000000    -1.013000000
H    -0.237000000    -1.459000000    -1.882000000
C     0.701000000     0.199000000    -0.942000000
H     1.435000000     0.280000000    -1.780000000
C     0.809000000     1.033000000     0.144000000
H     1.609000000     1.770000000     0.145000000
C    -0.042000000     0.818000000     1.224000000
H     0.208000000     1.351000000     2.138000000
C    -1.119000000    -0.094000000     1.151000000
C    -1.950000000    -0.339000000     2.379000000
O    -2.985000000    -0.960000000     2.391000000
O    -1.408000000    -0.218000000     3.480000000
