14
-81.70149
C    -1.075000000    -0.344000000    -0.901000000
H    -1.769000000    -0.388000000    -1.736000000
C     0.261000000    -0.303000000    -1.192000000
H     0.613000000    -0.416000000    -2.214000000
C     1.186000000    -0.026000000    -0.272000000
H     2.177000000    -0.101000000    -0.447000000
C     0.792000000     0.196000000     1.008000000
H     1.561000000     0.336000000     1.763000000
C    -0.577000000     0.146000000     1.351000000
H    -0.936000000     0.350000000     2.356000000
C    -1.566000000    -0.190000000     0.396000000
C    -3.033000000    -0.167000000     0.789000000
O    -3.819000000     0.208000000    -0.010000000
O    -3.251000000    -0.265000000     2.013000000
