14
-84.84773
C    -1.085000000    -0.334000000    -0.875000000
H    -1.909000000    -0.563000000    -1.545000000
C     0.255000000    -0.326000000    -1.253000000
H     0.446000000    -0.622000000    -2.281000000
C     1.197000000     0.001000000    -0.323000000
H     2.304000000    -0.168000000    -0.616000000
C     0.882000000     0.387000000     0.967000000
H     1.582000000     0.567000000     1.779000000
C    -0.486000000     0.388000000     1.404000000
H    -0.866000000     0.695000000     2.375000000
C    -1.436000000    -0.052000000     0.498000000
C    -2.884000000    -0.037000000     0.943000000
O    -3.809000000    -0.375000000     0.182000000
O    -3.190000000     0.259000000     2.067000000
