14
-83.40975
C    -0.977000000     0.928000000    -0.627000000
H    -1.692000000     1.554000000    -1.155000000
C     0.350000000     0.748000000    -1.018000000
H     0.793000000     1.346000000    -1.810000000
C     1.196000000     0.043000000    -0.242000000
H     2.191000000    -0.056000000    -0.451000000
C     0.740000000    -0.688000000     0.893000000
H     1.417000000    -1.196000000     1.575000000
C    -0.671000000    -0.645000000     1.154000000
H    -0.948000000    -1.246000000     2.016000000
C    -1.526000000     0.060000000     0.328000000
C    -3.013000000    -0.044000000     0.521000000
O    -3.757000000     0.159000000    -0.484000000
O    -3.415000000    -0.679000000     1.483000000
