14
-66.11226
C    -0.247000000    -0.175000000    -1.407000000
H    -0.528000000    -0.422000000    -2.428000000
C     0.465000000    -1.063000000    -0.610000000
H     0.818000000    -2.041000000    -0.925000000
C     0.710000000    -0.690000000     0.698000000
H     1.301000000    -1.392000000     1.399000000
C     0.132000000     0.441000000     1.200000000
H     0.305000000     0.656000000     2.251000000
C    -0.532000000     1.382000000     0.412000000
H    -0.924000000     2.279000000     0.886000000
C    -0.778000000     1.045000000    -0.955000000
C    -1.692000000     1.802000000    -1.786000000
O    -2.087000000     1.446000000    -2.877000000
O    -2.194000000     2.760000000    -1.406000000
