14
-85.11835
C     0.340000000    -0.577000000    -1.301000000
H     0.697000000    -0.909000000    -2.272000000
C     1.061000000    -0.826000000    -0.123000000
H     1.969000000    -1.422000000    -0.176000000
C     0.644000000    -0.116000000     1.032000000
H     1.103000000    -0.294000000     1.981000000
C    -0.557000000     0.549000000     1.024000000
H    -0.910000000     1.016000000     1.940000000
C    -1.311000000     0.683000000    -0.091000000
H    -2.216000000     1.272000000     0.026000000
C    -0.813000000     0.220000000    -1.266000000
C    -1.639000000     0.285000000    -2.546000000
O    -1.129000000     0.013000000    -3.655000000
O    -2.671000000     0.925000000    -2.471000000
