14
-75.47320
C     0.353000000    -0.429000000    -1.396000000
H     0.690000000    -0.838000000    -2.345000000
C     1.262000000    -0.235000000    -0.331000000
H     2.344000000    -0.316000000    -0.393000000
C     0.798000000     0.135000000     0.872000000
H     1.427000000     0.082000000     1.729000000
C    -0.478000000     0.522000000     1.042000000
H    -0.728000000     0.718000000     2.081000000
C    -1.430000000     0.336000000     0.105000000
H    -2.508000000     0.397000000     0.237000000
C    -1.060000000    -0.214000000    -1.138000000
C    -2.003000000    -0.524000000    -2.275000000
O    -1.562000000    -0.685000000    -3.390000000
O    -3.193000000    -0.351000000    -2.142000000
