14
-78.95091
C    -0.807000000    -0.234000000    -1.242000000
H    -1.470000000    -0.580000000    -2.031000000
C    -1.307000000    -0.226000000     0.061000000
H    -2.353000000    -0.488000000     0.198000000
C    -0.467000000     0.016000000     1.089000000
H    -0.799000000     0.021000000     2.100000000
C     0.893000000     0.247000000     0.917000000
H     1.442000000     0.673000000     1.752000000
C     1.443000000     0.304000000    -0.389000000
H     2.524000000     0.322000000    -0.499000000
C     0.579000000     0.022000000    -1.439000000
C     1.240000000    -0.094000000    -2.767000000
O     0.495000000    -0.184000000    -3.727000000
O     2.411000000    -0.186000000    -2.993000000
