14
-90.80823
C    -0.504000000    -0.307000000    -1.366000000
H    -0.968000000    -0.652000000    -2.286000000
C    -1.150000000    -0.675000000    -0.145000000
H    -2.094000000    -1.208000000    -0.221000000
C    -0.584000000    -0.310000000     1.045000000
H    -1.123000000    -0.376000000     1.957000000
C     0.617000000     0.428000000     1.088000000
H     0.930000000     0.772000000     2.071000000
C     1.251000000     0.767000000    -0.111000000
H     2.186000000     1.322000000    -0.124000000
C     0.694000000     0.382000000    -1.377000000
C     1.517000000     0.677000000    -2.614000000
O     1.015000000     0.235000000    -3.653000000
O     2.536000000     1.278000000    -2.559000000
