14
-89.96035
C     1.108000000    -0.123000000    -0.988000000
H     1.864000000    -0.290000000    -1.752000000
C     1.273000000    -0.219000000     0.391000000
H     2.256000000    -0.333000000     0.841000000
C     0.150000000    -0.057000000     1.248000000
H     0.239000000    -0.175000000     2.369000000
C    -1.134000000     0.107000000     0.688000000
H    -2.046000000     0.210000000     1.270000000
C    -1.210000000     0.107000000    -0.678000000
H    -2.180000000     0.245000000    -1.148000000
C    -0.135000000     0.064000000    -1.556000000
C    -0.364000000     0.112000000    -3.105000000
O     0.527000000     0.426000000    -3.844000000
O    -1.536000000    -0.035000000    -3.493000000
