14
-92.75799
C     0.832000000    -0.671000000    -1.070000000
H     1.271000000    -1.049000000    -1.990000000
C     0.977000000     0.676000000    -0.684000000
H     1.490000000     1.397000000    -1.315000000
C     0.273000000     1.121000000     0.436000000
H     0.459000000     2.185000000     0.764000000
C    -0.575000000     0.244000000     1.179000000
H    -1.154000000     0.617000000     2.021000000
C    -0.788000000    -1.040000000     0.694000000
H    -1.647000000    -1.607000000     1.045000000
C    -0.102000000    -1.498000000    -0.432000000
C    -0.422000000    -2.847000000    -1.085000000
O    -0.985000000    -3.717000000    -0.432000000
O    -0.164000000    -2.980000000    -2.289000000
