14
-84.19835
C     0.485000000    -0.339000000    -1.415000000
H     0.668000000    -0.568000000    -2.462000000
C    -0.786000000     0.132000000    -1.053000000
H    -1.552000000     0.359000000    -1.789000000
C    -1.075000000     0.515000000     0.247000000
H    -2.027000000     0.959000000     0.563000000
C    -0.105000000     0.387000000     1.230000000
H    -0.385000000     0.678000000     2.239000000
C     1.107000000    -0.155000000     0.954000000
H     1.805000000    -0.389000000     1.754000000
C     1.430000000    -0.496000000    -0.345000000
C     2.726000000    -1.185000000    -0.546000000
O     2.954000000    -1.805000000    -1.546000000
O     3.601000000    -0.979000000     0.257000000
