14
-86.68081
C    -1.076000000    -0.667000000    -0.835000000
H    -1.950000000    -1.111000000    -1.306000000
C    -1.286000000    -0.072000000     0.392000000
H    -2.266000000     0.062000000     0.842000000
C    -0.203000000     0.474000000     1.116000000
H    -0.428000000     1.012000000     2.034000000
C     1.121000000     0.334000000     0.590000000
H     1.925000000     0.781000000     1.169000000
C     1.291000000    -0.218000000    -0.690000000
H     2.259000000    -0.284000000    -1.180000000
C     0.209000000    -0.665000000    -1.410000000
C     0.447000000    -1.142000000    -2.830000000
O    -0.362000000    -1.027000000    -3.661000000
O     1.558000000    -1.644000000    -3.095000000
