14
-72.16575
C     0.211000000    -0.224000000    -1.490000000
H     0.341000000    -0.353000000    -2.561000000
C    -0.877000000     0.485000000    -0.929000000
H    -1.532000000     1.054000000    -1.584000000
C    -0.910000000     0.653000000     0.460000000
H    -1.697000000     1.325000000     0.923000000
C     0.036000000    -0.003000000     1.270000000
H    -0.015000000     0.168000000     2.342000000
C     0.984000000    -0.770000000     0.765000000
H     1.711000000    -1.108000000     1.500000000
C     1.147000000    -0.824000000    -0.645000000
C     2.354000000    -1.419000000    -1.301000000
O     2.273000000    -2.108000000    -2.325000000
O     3.439000000    -1.365000000    -0.874000000
