14
-82.39874
C    -1.204000000     0.266000000    -0.916000000
H    -2.130000000     0.449000000    -1.455000000
C    -1.050000000     0.733000000     0.391000000
H    -1.790000000     1.361000000     0.881000000
C     0.125000000     0.469000000     1.133000000
H     0.274000000     0.659000000     2.189000000
C     1.154000000    -0.324000000     0.575000000
H     2.031000000    -0.582000000     1.162000000
C     0.944000000    -0.836000000    -0.715000000
H     1.710000000    -1.461000000    -1.166000000
C    -0.188000000    -0.532000000    -1.490000000
C    -0.359000000    -1.161000000    -2.827000000
O    -1.232000000    -0.898000000    -3.566000000
O     0.593000000    -1.792000000    -3.218000000
