14
-88.75432
C     0.844000000    -0.500000000    -1.175000000
H     1.447000000    -0.811000000    -2.024000000
C     0.793000000     0.828000000    -0.684000000
H     1.317000000     1.576000000    -1.273000000
C     0.017000000     1.143000000     0.424000000
H    -0.089000000     2.175000000     0.697000000
C    -0.767000000     0.179000000     1.056000000
H    -1.368000000     0.317000000     1.951000000
C    -0.697000000    -1.134000000     0.539000000
H    -1.243000000    -1.870000000     1.123000000
C     0.031000000    -1.483000000    -0.626000000
C     0.010000000    -2.859000000    -1.145000000
O    -0.597000000    -3.761000000    -0.610000000
O     0.587000000    -3.069000000    -2.205000000
