14
-78.23074
C     0.551000000     0.213000000    -1.304000000
H     0.871000000     0.414000000    -2.324000000
C     0.572000000     1.120000000    -0.270000000
H     0.958000000     2.131000000    -0.377000000
C     0.102000000     0.742000000     0.961000000
H     0.194000000     1.446000000     1.789000000
C    -0.482000000    -0.494000000     1.181000000
H    -0.951000000    -0.710000000     2.138000000
C    -0.648000000    -1.312000000     0.065000000
H    -1.183000000    -2.258000000     0.068000000
C    -0.090000000    -0.916000000    -1.188000000
C    -0.100000000    -1.936000000    -2.324000000
O    -0.193000000    -3.119000000    -2.132000000
O     0.001000000    -1.605000000    -3.494000000
