14
-85.00678
C     0.154000000    -0.706000000    -1.318000000
H     0.385000000    -1.068000000    -2.316000000
C    -0.904000000     0.104000000    -0.971000000
H    -1.633000000     0.277000000    -1.758000000
C    -1.030000000     0.608000000     0.368000000
H    -1.899000000     1.225000000     0.708000000
C     0.031000000     0.393000000     1.291000000
H    -0.110000000     0.709000000     2.322000000
C     1.112000000    -0.307000000     0.824000000
H     1.932000000    -0.492000000     1.512000000
C     1.171000000    -0.910000000    -0.406000000
C     2.481000000    -1.675000000    -0.873000000
O     2.527000000    -2.141000000    -1.992000000
O     3.359000000    -1.973000000    -0.084000000
