14
-83.82941
C     0.590000000     0.379000000    -1.306000000
H     1.000000000     0.675000000    -2.268000000
C    -0.777000000    -0.031000000    -1.148000000
H    -1.508000000     0.168000000    -1.928000000
C    -1.203000000    -0.384000000     0.162000000
H    -2.244000000    -0.627000000     0.323000000
C    -0.310000000    -0.374000000     1.288000000
H    -0.670000000    -0.369000000     2.314000000
C     1.044000000    -0.082000000     1.018000000
H     1.693000000     0.022000000     1.884000000
C     1.513000000     0.281000000    -0.222000000
C     2.913000000     0.742000000    -0.422000000
O     3.440000000     0.810000000    -1.544000000
O     3.681000000     1.036000000     0.505000000
