14
-68.25529
C     0.518000000    -0.103000000    -1.389000000
H     0.715000000    -0.150000000    -2.456000000
C    -0.816000000    -0.329000000    -0.952000000
H    -1.592000000    -0.475000000    -1.700000000
C    -1.110000000    -0.397000000     0.380000000
H    -2.183000000    -0.642000000     0.700000000
C    -0.190000000     0.005000000     1.346000000
H    -0.417000000    -0.001000000     2.409000000
C     1.145000000     0.370000000     0.906000000
H     1.821000000     0.775000000     1.655000000
C     1.495000000     0.429000000    -0.454000000
C     2.846000000     0.879000000    -0.913000000
O     3.015000000     0.869000000    -2.089000000
O     3.827000000     0.670000000    -0.245000000
