14
-79.67556
C    -0.244000000    -0.082000000    -1.462000000
H    -0.433000000    -0.128000000    -2.531000000
C    -1.170000000    -0.412000000    -0.500000000
H    -2.145000000    -0.846000000    -0.708000000
C    -0.844000000    -0.277000000     0.848000000
H    -1.505000000    -0.635000000     1.656000000
C     0.378000000     0.258000000     1.180000000
H     0.630000000     0.298000000     2.237000000
C     1.288000000     0.728000000     0.242000000
H     2.287000000     1.007000000     0.568000000
C     0.986000000     0.536000000    -1.122000000
C     1.974000000     0.981000000    -2.204000000
O     1.662000000     0.956000000    -3.312000000
O     3.146000000     0.963000000    -1.862000000
