14
-93.03795
C    -1.140000000     0.910000000    -0.185000000
H    -2.003000000     1.567000000    -0.117000000
C    -1.068000000    -0.023000000     0.809000000
H    -1.840000000    -0.155000000     1.563000000
C     0.001000000    -0.879000000     0.836000000
H     0.082000000    -1.636000000     1.673000000
C     0.980000000    -0.798000000    -0.169000000
H     1.809000000    -1.495000000    -0.080000000
C     0.954000000     0.188000000    -1.112000000
H     1.681000000     0.248000000    -1.918000000
C    -0.125000000     1.067000000    -1.166000000
C    -0.138000000     2.207000000    -2.165000000
O    -1.200000000     2.792000000    -2.337000000
O     0.913000000     2.458000000    -2.796000000
