14
-70.62388
C    -0.972000000     0.582000000    -0.895000000
H    -1.846000000     0.910000000    -1.453000000
C    -1.263000000    -0.316000000     0.210000000
H    -2.267000000    -0.600000000     0.515000000
C    -0.170000000    -0.758000000     0.935000000
H    -0.420000000    -1.289000000     1.835000000
C     1.060000000    -0.342000000     0.656000000
H     1.892000000    -0.660000000     1.279000000
C     1.312000000     0.411000000    -0.489000000
H     2.319000000     0.718000000    -0.761000000
C     0.270000000     1.011000000    -1.188000000
C     0.415000000     1.914000000    -2.324000000
O    -0.443000000     2.056000000    -3.134000000
O     1.521000000     2.327000000    -2.701000000
