14
-88.60877
C     0.562000000     0.222000000    -1.278000000
H     0.852000000     0.620000000    -2.247000000
C    -0.667000000    -0.393000000    -1.095000000
H    -1.363000000    -0.678000000    -1.879000000
C    -1.088000000    -0.487000000     0.217000000
H    -2.017000000    -0.961000000     0.474000000
C    -0.293000000    -0.175000000     1.322000000
H    -0.765000000    -0.139000000     2.301000000
C     1.026000000     0.336000000     1.074000000
H     1.805000000     0.573000000     1.795000000
C     1.394000000     0.634000000    -0.239000000
C     2.696000000     1.366000000    -0.545000000
O     2.929000000     1.516000000    -1.728000000
O     3.452000000     1.599000000     0.380000000
