14
-85.50809
C    -1.087000000     0.920000000    -0.411000000
H    -1.866000000     1.632000000    -0.672000000
C    -0.909000000     0.356000000     0.850000000
H    -1.566000000     0.672000000     1.657000000
C     0.064000000    -0.593000000     1.123000000
H     0.140000000    -1.153000000     2.137000000
C     0.928000000    -0.894000000     0.085000000
H     1.712000000    -1.628000000     0.251000000
C     0.871000000    -0.287000000    -1.115000000
H     1.696000000    -0.460000000    -1.800000000
C    -0.126000000     0.660000000    -1.413000000
C    -0.257000000     1.328000000    -2.757000000
O    -1.262000000     1.878000000    -3.153000000
O     0.737000000     1.345000000    -3.437000000
