14
-83.81997
C     0.209000000    -1.420000000    -0.429000000
H     0.164000000    -2.414000000    -0.866000000
C    -1.017000000    -0.790000000    -0.162000000
H    -1.917000000    -1.383000000    -0.301000000
C    -1.011000000     0.449000000     0.381000000
H    -2.003000000     0.778000000     0.804000000
C     0.097000000     1.205000000     0.568000000
H     0.126000000     2.251000000     0.863000000
C     1.271000000     0.657000000     0.055000000
H     2.182000000     1.243000000    -0.034000000
C     1.400000000    -0.658000000    -0.365000000
C     2.654000000    -1.180000000    -0.974000000
O     2.764000000    -2.319000000    -1.330000000
O     3.513000000    -0.333000000    -1.158000000
