14
-80.12577
C     0.258000000    -0.814000000    -1.184000000
H     0.324000000    -1.419000000    -2.085000000
C    -0.877000000    -0.681000000    -0.488000000
H    -1.840000000    -1.071000000    -0.806000000
C    -0.964000000    -0.026000000     0.663000000
H    -1.885000000     0.059000000     1.188000000
C     0.094000000     0.647000000     1.219000000
H    -0.042000000     1.262000000     2.104000000
C     1.326000000     0.569000000     0.485000000
H     2.171000000     1.163000000     0.822000000
C     1.371000000    -0.160000000    -0.731000000
C     2.648000000    -0.156000000    -1.446000000
O     2.748000000    -0.710000000    -2.571000000
O     3.649000000     0.410000000    -1.031000000
