14
-85.01489
C     0.094000000    -0.386000000    -1.456000000
H     0.072000000    -0.871000000    -2.429000000
C    -0.985000000    -0.502000000    -0.669000000
H    -1.885000000    -1.060000000    -0.914000000
C    -1.058000000    -0.022000000     0.576000000
H    -1.945000000    -0.205000000     1.145000000
C     0.088000000     0.521000000     1.171000000
H     0.028000000     0.785000000     2.224000000
C     1.286000000     0.603000000     0.476000000
H     2.220000000     0.930000000     0.926000000
C     1.294000000     0.197000000    -0.907000000
C     2.636000000     0.194000000    -1.593000000
O     2.795000000    -0.427000000    -2.711000000
O     3.539000000     0.845000000    -0.995000000
