14
-73.47137
C     0.205000000    -0.282000000    -1.376000000
H     0.594000000    -0.479000000    -2.372000000
C     0.880000000     0.683000000    -0.700000000
H     1.693000000     1.257000000    -1.135000000
C     0.573000000     0.810000000     0.663000000
H     1.216000000     1.532000000     1.265000000
C    -0.458000000     0.062000000     1.220000000
H    -0.683000000     0.192000000     2.276000000
C    -1.213000000    -0.731000000     0.430000000
H    -2.053000000    -1.211000000     0.927000000
C    -0.860000000    -0.996000000    -0.918000000
C    -1.451000000    -2.111000000    -1.685000000
O    -2.071000000    -3.034000000    -1.245000000
O    -1.342000000    -2.057000000    -2.863000000
