14
-80.17288
C     1.083000000    -0.953000000     0.379000000
H     1.768000000    -1.705000000     0.762000000
C    -0.251000000    -1.131000000     0.637000000
H    -0.462000000    -2.112000000     1.056000000
C    -1.232000000    -0.233000000     0.162000000
H    -2.255000000    -0.262000000     0.444000000
C    -0.750000000     0.996000000    -0.316000000
H    -1.387000000     1.844000000    -0.554000000
C     0.602000000     1.254000000    -0.516000000
H     0.851000000     2.114000000    -1.132000000
C     1.549000000     0.205000000    -0.288000000
C     3.061000000     0.410000000    -0.499000000
O     3.753000000    -0.525000000    -0.205000000
O     3.574000000     1.453000000    -0.823000000
