14
-87.13666
C     0.234000000    -1.350000000     0.440000000
H     0.229000000    -2.409000000     0.685000000
C    -0.968000000    -0.701000000     0.560000000
H    -1.852000000    -1.214000000     0.932000000
C    -1.008000000     0.652000000     0.143000000
H    -1.921000000     1.186000000     0.178000000
C     0.126000000     1.358000000    -0.291000000
H    -0.057000000     2.334000000    -0.733000000
C     1.371000000     0.650000000    -0.461000000
H     2.305000000     1.044000000    -0.853000000
C     1.358000000    -0.663000000    -0.094000000
C     2.591000000    -1.535000000    -0.307000000
O     2.714000000    -2.555000000     0.384000000
O     3.581000000    -1.197000000    -0.990000000
