14
-81.15600
C     0.302000000    -1.212000000     0.908000000
H     0.399000000    -1.915000000     1.731000000
C    -0.970000000    -0.577000000     0.733000000
H    -1.840000000    -0.955000000     1.264000000
C    -1.126000000     0.508000000    -0.159000000
H    -2.145000000     0.881000000    -0.339000000
C    -0.043000000     0.987000000    -0.828000000
H    -0.153000000     1.836000000    -1.498000000
C     1.183000000     0.342000000    -0.678000000
H     2.043000000     0.859000000    -1.097000000
C     1.422000000    -0.767000000     0.221000000
C     2.793000000    -1.407000000     0.383000000
O     2.881000000    -2.486000000     0.880000000
O     3.781000000    -0.914000000    -0.073000000
