14
-89.25040
C    -0.372000000    -1.403000000     0.153000000
H    -0.639000000    -2.446000000     0.302000000
C    -1.272000000    -0.361000000     0.321000000
H    -2.243000000    -0.693000000     0.679000000
C    -0.788000000     0.912000000     0.136000000
H    -1.473000000     1.797000000     0.269000000
C     0.535000000     1.141000000    -0.172000000
H     0.860000000     2.174000000    -0.273000000
C     1.361000000     0.103000000    -0.466000000
H     2.270000000     0.344000000    -1.012000000
C     0.958000000    -1.193000000    -0.274000000
C     1.899000000    -2.331000000    -0.520000000
O     1.558000000    -3.476000000    -0.238000000
O     2.994000000    -2.073000000    -1.006000000
