14
-88.68177
C     0.423000000    -0.087000000     1.418000000
H     0.456000000    -0.224000000     2.495000000
C    -0.855000000    -0.178000000     0.872000000
H    -1.623000000    -0.338000000     1.624000000
C    -1.132000000     0.005000000    -0.438000000
H    -2.151000000    -0.096000000    -0.743000000
C    -0.124000000     0.370000000    -1.297000000
H    -0.376000000     0.590000000    -2.331000000
C     1.205000000     0.399000000    -0.805000000
H     2.023000000     0.723000000    -1.444000000
C     1.497000000     0.033000000     0.531000000
C     2.950000000    -0.085000000     0.986000000
O     3.133000000    -0.551000000     2.109000000
O     3.874000000     0.113000000     0.218000000
