14
-86.72477
C    -0.319000000    -1.434000000    -0.117000000
H    -0.651000000    -2.465000000    -0.198000000
C    -1.222000000    -0.398000000     0.045000000
H    -2.274000000    -0.669000000     0.078000000
C    -0.795000000     0.927000000     0.083000000
H    -1.498000000     1.714000000     0.058000000
C     0.535000000     1.239000000    -0.090000000
H     0.800000000     2.279000000    -0.265000000
C     1.470000000     0.197000000    -0.041000000
H     2.530000000     0.432000000    -0.099000000
C     1.054000000    -1.155000000    -0.069000000
C     2.119000000    -2.223000000    -0.177000000
O     1.690000000    -3.361000000    -0.216000000
O     3.289000000    -2.036000000    -0.301000000
