14
-81.60183
C    -0.104000000     0.210000000     1.433000000
H    -0.032000000     0.550000000     2.463000000
C    -0.374000000     1.175000000     0.452000000
H    -0.593000000     2.215000000     0.679000000
C    -0.103000000     0.854000000    -0.864000000
H    -0.155000000     1.661000000    -1.685000000
C     0.304000000    -0.426000000    -1.224000000
H     0.462000000    -0.672000000    -2.271000000
C     0.441000000    -1.407000000    -0.233000000
H     0.877000000    -2.351000000    -0.551000000
C     0.116000000    -1.097000000     1.106000000
C     0.336000000    -2.137000000     2.189000000
O     0.139000000    -1.908000000     3.365000000
O     0.768000000    -3.213000000     1.918000000
