14
-87.89141
C    -1.342000000    -0.300000000     0.667000000
H    -2.379000000    -0.412000000     0.975000000
C    -0.888000000     0.943000000     0.292000000
H    -1.567000000     1.787000000     0.391000000
C     0.350000000     1.116000000    -0.279000000
H     0.738000000     2.142000000    -0.450000000
C     1.211000000     0.069000000    -0.491000000
H     2.200000000     0.256000000    -0.903000000
C     0.819000000    -1.179000000    -0.126000000
H     1.462000000    -2.050000000    -0.223000000
C    -0.469000000    -1.395000000     0.463000000
C    -0.944000000    -2.861000000     0.631000000
O    -2.036000000    -3.051000000     1.138000000
O    -0.202000000    -3.781000000     0.411000000
