14
-85.70971
C     0.668000000     0.360000000    -1.213000000
H     1.217000000     0.821000000    -2.030000000
C     0.523000000     1.136000000    -0.075000000
H     0.894000000     2.153000000    -0.168000000
C    -0.069000000     0.647000000     1.086000000
H    -0.192000000     1.376000000     1.884000000
C    -0.754000000    -0.572000000     1.024000000
H    -1.396000000    -0.932000000     1.823000000
C    -0.618000000    -1.292000000    -0.217000000
H    -1.139000000    -2.241000000    -0.311000000
C     0.159000000    -0.878000000    -1.303000000
C     0.262000000    -1.734000000    -2.517000000
O    -0.449000000    -2.729000000    -2.665000000
O     1.066000000    -1.468000000    -3.461000000
