14
-84.92115
C    -1.258000000    -0.396000000     0.710000000
H    -2.170000000    -0.500000000     1.293000000
C    -1.097000000     0.762000000    -0.045000000
H    -1.891000000     1.487000000     0.118000000
C     0.099000000     1.038000000    -0.747000000
H     0.177000000     2.035000000    -1.179000000
C     1.115000000     0.126000000    -0.660000000
H     2.116000000     0.378000000    -1.000000000
C     0.865000000    -1.131000000    -0.080000000
H     1.686000000    -1.838000000    -0.170000000
C    -0.290000000    -1.427000000     0.658000000
C    -0.255000000    -2.671000000     1.575000000
O    -1.298000000    -3.168000000     1.926000000
O     0.783000000    -3.261000000     1.851000000
