14
-88.37837
C    -0.016000000     1.395000000     0.381000000
H    -0.243000000     2.406000000     0.709000000
C    -0.661000000     0.827000000    -0.678000000
H    -1.301000000     1.483000000    -1.261000000
C    -0.578000000    -0.530000000    -0.982000000
H    -1.189000000    -0.944000000    -1.805000000
C     0.268000000    -1.332000000    -0.210000000
H     0.274000000    -2.395000000    -0.434000000
C     0.912000000    -0.745000000     0.884000000
H     1.416000000    -1.432000000     1.559000000
C     0.773000000     0.626000000     1.196000000
C     1.450000000     1.312000000     2.408000000
O     1.079000000     2.456000000     2.683000000
O     2.434000000     0.856000000     2.910000000
