14
-85.62630
C    -0.324000000     1.374000000    -0.082000000
H    -0.543000000     2.411000000    -0.324000000
C    -0.800000000     0.366000000    -0.915000000
H    -1.582000000     0.549000000    -1.648000000
C    -0.470000000    -0.917000000    -0.687000000
H    -0.764000000    -1.710000000    -1.343000000
C     0.450000000    -1.209000000     0.303000000
H     0.737000000    -2.222000000     0.575000000
C     0.917000000    -0.138000000     1.153000000
H     1.503000000    -0.388000000     2.034000000
C     0.512000000     1.153000000     1.005000000
C     1.071000000     2.294000000     1.751000000
O     1.222000000     3.392000000     1.248000000
O     1.533000000     2.059000000     2.908000000
