14
-86.19355
C    -1.048000000     1.060000000     0.191000000
H    -1.635000000     1.835000000     0.677000000
C    -1.258000000    -0.324000000     0.331000000
H    -2.264000000    -0.653000000     0.575000000
C    -0.257000000    -1.208000000     0.031000000
H    -0.357000000    -2.274000000     0.015000000
C     0.955000000    -0.752000000    -0.488000000
H     1.754000000    -1.461000000    -0.690000000
C     1.200000000     0.637000000    -0.566000000
H     2.184000000     1.023000000    -0.822000000
C     0.200000000     1.588000000    -0.227000000
C     0.482000000     3.054000000    -0.005000000
O    -0.212000000     3.694000000     0.775000000
O     1.582000000     3.480000000    -0.354000000
