14
-81.23635
C    -0.886000000     1.183000000     0.016000000
H    -1.601000000     2.002000000    -0.024000000
C    -1.122000000     0.007000000    -0.729000000
H    -2.054000000    -0.019000000    -1.287000000
C    -0.178000000    -0.981000000    -0.640000000
H    -0.324000000    -1.979000000    -1.106000000
C     0.878000000    -0.897000000     0.123000000
H     1.590000000    -1.719000000     0.134000000
C     1.157000000     0.265000000     0.846000000
H     2.095000000     0.347000000     1.388000000
C     0.249000000     1.328000000     0.758000000
C     0.430000000     2.579000000     1.626000000
O    -0.373000000     3.447000000     1.428000000
O     1.416000000     2.733000000     2.282000000
