14
-93.54946
C     0.776000000     0.364000000     1.208000000
H     1.224000000     0.587000000     2.173000000
C    -0.359000000     1.007000000     0.742000000
H    -0.768000000     1.824000000     1.331000000
C    -0.997000000     0.620000000    -0.465000000
H    -1.876000000     1.168000000    -0.808000000
C    -0.482000000    -0.508000000    -1.138000000
H    -0.921000000    -0.767000000    -2.098000000
C     0.653000000    -1.160000000    -0.650000000
H     0.939000000    -2.083000000    -1.149000000
C     1.315000000    -0.754000000     0.496000000
C     2.485000000    -1.546000000     1.136000000
O     2.932000000    -2.548000000     0.603000000
O     3.076000000    -0.966000000     2.061000000
