14
-92.49230
C     1.060000000    -0.752000000     0.715000000
H     1.713000000    -1.377000000     1.320000000
C    -0.325000000    -0.821000000     0.973000000
H    -0.680000000    -1.360000000     1.847000000
C    -1.196000000    -0.072000000     0.212000000
H    -2.227000000     0.046000000     0.595000000
C    -0.754000000     0.661000000    -0.843000000
H    -1.446000000     1.271000000    -1.419000000
C     0.581000000     0.690000000    -1.177000000
H     0.919000000     1.461000000    -1.865000000
C     1.493000000    -0.059000000    -0.412000000
C     3.022000000    -0.053000000    -0.704000000
O     3.390000000     0.572000000    -1.714000000
O     3.780000000    -0.646000000     0.051000000
