14
-80.50000
C    -1.012000000     0.953000000    -0.412000000
H    -1.811000000     1.548000000    -0.847000000
C    -1.206000000    -0.461000000    -0.283000000
H    -2.211000000    -0.849000000    -0.427000000
C    -0.211000000    -1.233000000     0.162000000
H    -0.410000000    -2.265000000     0.322000000
C     1.061000000    -0.664000000     0.473000000
H     1.817000000    -1.333000000     0.876000000
C     1.228000000     0.751000000     0.287000000
H     2.167000000     1.274000000     0.447000000
C     0.231000000     1.564000000    -0.195000000
C     0.539000000     3.038000000    -0.379000000
O    -0.316000000     3.719000000    -0.900000000
O     1.521000000     3.573000000     0.009000000
