14
-78.05186
C    -1.130000000     0.903000000    -0.306000000
H    -2.053000000     1.441000000    -0.509000000
C    -1.214000000    -0.409000000     0.125000000
H    -2.179000000    -0.831000000     0.393000000
C    -0.088000000    -1.135000000     0.440000000
H    -0.186000000    -2.077000000     1.048000000
C     1.190000000    -0.590000000     0.198000000
H     2.013000000    -1.218000000     0.530000000
C     1.340000000     0.751000000    -0.234000000
H     2.361000000     1.070000000    -0.429000000
C     0.099000000     1.502000000    -0.466000000
C     0.251000000     2.778000000    -1.143000000
O    -0.635000000     3.618000000    -1.119000000
O     1.329000000     3.111000000    -1.556000000
