14
-88.69541
C    -1.001000000     0.538000000    -0.834000000
H    -1.863000000     0.915000000    -1.377000000
C    -1.230000000    -0.422000000     0.146000000
H    -2.212000000    -0.852000000     0.326000000
C    -0.115000000    -0.913000000     0.880000000
H    -0.168000000    -1.748000000     1.564000000
C     1.168000000    -0.305000000     0.641000000
H     2.032000000    -0.514000000     1.266000000
C     1.299000000     0.627000000    -0.367000000
H     2.290000000     1.070000000    -0.432000000
C     0.241000000     1.041000000    -1.175000000
C     0.418000000     2.019000000    -2.323000000
O    -0.532000000     2.377000000    -3.025000000
O     1.498000000     2.568000000    -2.567000000
