14
-77.19598
C    -1.057000000     0.931000000    -0.287000000
H    -1.833000000     1.559000000    -0.718000000
C    -1.303000000    -0.386000000    -0.021000000
H    -2.303000000    -0.791000000    -0.154000000
C    -0.203000000    -1.145000000     0.345000000
H    -0.411000000    -2.129000000     0.447000000
C     1.073000000    -0.593000000     0.526000000
H     1.971000000    -1.177000000     0.711000000
C     1.279000000     0.770000000     0.322000000
H     2.302000000     1.086000000     0.512000000
C     0.186000000     1.569000000    -0.093000000
C     0.368000000     2.998000000    -0.598000000
O    -0.457000000     3.565000000    -1.289000000
O     1.407000000     3.536000000    -0.480000000
