14
-85.02164
C    -1.326000000     0.614000000    -0.390000000
H    -2.267000000     1.130000000    -0.561000000
C    -1.186000000    -0.281000000     0.664000000
H    -1.984000000    -0.543000000     1.355000000
C     0.129000000    -0.809000000     0.920000000
H     0.308000000    -1.485000000     1.786000000
C     1.202000000    -0.617000000     0.013000000
H     2.203000000    -1.034000000     0.083000000
C     1.019000000     0.261000000    -1.089000000
H     1.827000000     0.580000000    -1.742000000
C    -0.265000000     0.879000000    -1.267000000
C    -0.464000000     2.014000000    -2.264000000
O    -1.559000000     2.356000000    -2.612000000
O     0.494000000     2.483000000    -2.920000000
