14
-82.23994
C    -1.269000000     0.436000000     0.777000000
H    -2.210000000     0.662000000     1.271000000
C    -1.020000000    -0.837000000     0.161000000
H    -1.788000000    -1.607000000     0.134000000
C     0.185000000    -1.161000000    -0.451000000
H     0.416000000    -2.134000000    -0.835000000
C     1.204000000    -0.215000000    -0.480000000
H     2.135000000    -0.418000000    -1.002000000
C     0.959000000     1.059000000     0.054000000
H     1.807000000     1.738000000     0.068000000
C    -0.306000000     1.450000000     0.614000000
C    -0.479000000     2.900000000     1.031000000
O    -1.411000000     3.262000000     1.710000000
O     0.540000000     3.559000000     1.068000000
