14
-91.65601
C    -0.732000000     0.644000000     1.097000000
H    -1.377000000     1.060000000     1.867000000
C    -0.819000000    -0.725000000     0.774000000
H    -1.478000000    -1.408000000     1.304000000
C    -0.102000000    -1.188000000    -0.320000000
H    -0.130000000    -2.249000000    -0.515000000
C     0.762000000    -0.316000000    -1.033000000
H     1.352000000    -0.755000000    -1.834000000
C     0.820000000     1.012000000    -0.708000000
H     1.498000000     1.612000000    -1.311000000
C     0.059000000     1.503000000     0.341000000
C     0.084000000     3.004000000     0.704000000
O     0.081000000     3.212000000     1.893000000
O     0.124000000     3.917000000    -0.109000000
