14
-83.57863
C    -0.873000000     1.080000000     0.574000000
H    -1.605000000     1.702000000     1.081000000
C    -0.784000000    -0.180000000     1.126000000
H    -1.395000000    -0.502000000     1.965000000
C     0.027000000    -1.134000000     0.443000000
H     0.025000000    -2.286000000     0.702000000
C     0.821000000    -0.764000000    -0.595000000
H     1.384000000    -1.489000000    -1.176000000
C     0.732000000     0.482000000    -1.147000000
H     1.328000000     0.823000000    -1.990000000
C    -0.105000000     1.453000000    -0.522000000
C    -0.071000000     2.861000000    -1.111000000
O    -0.866000000     3.745000000    -0.696000000
O     0.943000000     3.199000000    -1.701000000
