14
-80.12734
C    -1.067000000     1.043000000    -0.004000000
H    -1.968000000     1.639000000     0.123000000
C    -1.048000000    -0.068000000    -0.819000000
H    -1.944000000    -0.422000000    -1.321000000
C    -0.057000000    -0.998000000    -0.669000000
H    -0.151000000    -2.019000000    -1.163000000
C     1.002000000    -0.710000000     0.179000000
H     1.682000000    -1.525000000     0.413000000
C     1.102000000     0.469000000     0.874000000
H     1.913000000     0.529000000     1.595000000
C     0.015000000     1.371000000     0.827000000
C     0.142000000     2.619000000     1.686000000
O    -0.815000000     3.283000000     1.940000000
O     1.264000000     3.076000000     1.806000000
