14
-86.73160
C    -0.389000000     1.329000000     0.398000000
H    -0.924000000     2.242000000     0.647000000
C    -1.021000000     0.147000000     0.812000000
H    -1.982000000     0.131000000     1.321000000
C    -0.573000000    -1.035000000     0.340000000
H    -1.078000000    -1.938000000     0.705000000
C     0.646000000    -1.081000000    -0.353000000
H     1.070000000    -2.034000000    -0.660000000
C     1.314000000     0.063000000    -0.768000000
H     2.135000000     0.137000000    -1.478000000
C     0.755000000     1.292000000    -0.387000000
C     1.417000000     2.588000000    -0.807000000
O     0.945000000     3.720000000    -0.595000000
O     2.364000000     2.465000000    -1.546000000
