14
-84.92053
C    -1.017000000     1.089000000     0.262000000
H    -1.745000000     1.845000000     0.544000000
C    -1.120000000    -0.194000000     0.833000000
H    -1.946000000    -0.455000000     1.489000000
C    -0.077000000    -1.079000000     0.560000000
H    -0.167000000    -1.944000000     1.077000000
C     1.017000000    -0.780000000    -0.353000000
H     1.781000000    -1.526000000    -0.555000000
C     0.992000000     0.442000000    -0.989000000
H     1.747000000     0.745000000    -1.710000000
C     0.001000000     1.422000000    -0.710000000
C     0.122000000     2.813000000    -1.409000000
O    -0.622000000     3.745000000    -1.090000000
O     0.971000000     3.073000000    -2.282000000
