14
-90.48834
C    -1.343000000    -0.482000000    -0.497000000
H    -2.176000000    -0.979000000    -0.987000000
C    -0.510000000    -1.211000000     0.401000000
H    -0.857000000    -2.165000000     0.790000000
C     0.695000000    -0.604000000     0.801000000
H     1.352000000    -1.218000000     1.471000000
C     1.111000000     0.576000000     0.199000000
H     2.077000000     0.959000000     0.516000000
C     0.245000000     1.251000000    -0.658000000
H     0.531000000     2.206000000    -1.091000000
C    -0.961000000     0.757000000    -1.061000000
C    -1.796000000     1.469000000    -2.054000000
O    -2.861000000     0.965000000    -2.426000000
O    -1.488000000     2.628000000    -2.364000000
