14
-91.49890
C    -0.635000000    -1.359000000    -0.001000000
H    -0.988000000    -2.385000000     0.073000000
C     0.688000000    -1.088000000     0.370000000
H     1.309000000    -1.934000000     0.651000000
C     1.193000000     0.218000000     0.308000000
H     2.233000000     0.331000000     0.769000000
C     0.306000000     1.252000000    -0.014000000
H     0.616000000     2.287000000     0.102000000
C    -0.982000000     0.965000000    -0.511000000
H    -1.617000000     1.810000000    -0.764000000
C    -1.432000000    -0.348000000    -0.514000000
C    -2.901000000    -0.548000000    -0.978000000
O    -3.244000000    -1.722000000    -1.283000000
O    -3.676000000     0.370000000    -0.949000000
