14
-88.96205
C    -1.320000000     0.565000000    -0.406000000
H    -2.295000000     1.032000000    -0.524000000
C    -1.159000000    -0.645000000     0.259000000
H    -2.035000000    -1.183000000     0.612000000
C     0.172000000    -1.084000000     0.464000000
H     0.235000000    -2.013000000     1.019000000
C     1.276000000    -0.319000000     0.182000000
H     2.289000000    -0.679000000     0.336000000
C     1.102000000     0.913000000    -0.419000000
H     1.982000000     1.435000000    -0.786000000
C    -0.218000000     1.353000000    -0.800000000
C    -0.372000000     2.728000000    -1.441000000
O    -1.455000000     3.144000000    -1.744000000
O     0.662000000     3.313000000    -1.772000000
