14
-82.53846
C    -1.464000000     0.319000000    -0.008000000
H    -2.546000000     0.408000000     0.053000000
C    -0.889000000    -0.892000000     0.507000000
H    -1.509000000    -1.717000000     0.846000000
C     0.467000000    -1.054000000     0.403000000
H     0.834000000    -2.017000000     0.693000000
C     1.283000000    -0.069000000    -0.133000000
H     2.355000000    -0.248000000    -0.102000000
C     0.749000000     1.182000000    -0.413000000
H     1.487000000     1.952000000    -0.624000000
C    -0.679000000     1.341000000    -0.558000000
C    -1.239000000     2.668000000    -0.984000000
O    -2.437000000     2.823000000    -1.049000000
O    -0.561000000     3.685000000    -1.144000000
