14
-81.22080
C    -1.128000000     0.888000000    -0.367000000
H    -2.082000000     1.344000000    -0.618000000
C    -1.142000000    -0.149000000     0.631000000
H    -2.026000000    -0.393000000     1.214000000
C     0.040000000    -0.827000000     0.951000000
H    -0.017000000    -1.514000000     1.805000000
C     1.202000000    -0.619000000     0.232000000
H     2.088000000    -1.238000000     0.346000000
C     1.162000000     0.311000000    -0.806000000
H     1.959000000     0.526000000    -1.514000000
C     0.037000000     1.072000000    -1.156000000
C     0.013000000     2.177000000    -2.258000000
O    -1.043000000     2.769000000    -2.539000000
O     0.905000000     2.370000000    -3.022000000
