14
-84.79341
C    -0.746000000    -1.160000000     0.643000000
H    -1.318000000    -2.036000000     0.938000000
C     0.506000000    -1.206000000     0.007000000
H     0.993000000    -2.176000000    -0.055000000
C     1.133000000    -0.016000000    -0.421000000
H     2.085000000    -0.042000000    -0.996000000
C     0.523000000     1.225000000    -0.183000000
H     1.092000000     2.119000000    -0.429000000
C    -0.818000000     1.180000000     0.227000000
H    -1.286000000     2.159000000     0.156000000
C    -1.483000000     0.039000000     0.613000000
C    -2.929000000     0.091000000     0.921000000
O    -3.550000000    -0.958000000     1.051000000
O    -3.524000000     1.128000000     0.994000000
