14
-85.77521
C    -1.239000000    -0.765000000    -0.269000000
H    -2.189000000    -1.291000000    -0.317000000
C    -0.022000000    -1.326000000     0.053000000
H     0.029000000    -2.377000000     0.328000000
C     1.079000000    -0.507000000     0.278000000
H     1.985000000    -0.924000000     0.467000000
C     0.985000000     0.819000000     0.118000000
H     1.833000000     1.452000000     0.364000000
C    -0.224000000     1.454000000    -0.306000000
H    -0.360000000     2.530000000    -0.388000000
C    -1.320000000     0.611000000    -0.382000000
C    -2.632000000     1.264000000    -0.796000000
O    -3.614000000     0.596000000    -1.132000000
O    -2.681000000     2.477000000    -0.928000000
