14
-86.83972
C    -1.337000000    -0.191000000    -0.589000000
H    -2.302000000    -0.490000000    -0.989000000
C    -0.423000000    -1.158000000    -0.273000000
H    -0.845000000    -2.151000000    -0.403000000
C     0.840000000    -0.896000000     0.176000000
H     1.530000000    -1.749000000     0.355000000
C     1.211000000     0.400000000     0.353000000
H     2.234000000     0.635000000     0.635000000
C     0.259000000     1.395000000     0.164000000
H     0.452000000     2.416000000     0.483000000
C    -1.000000000     1.111000000    -0.277000000
C    -1.957000000     2.290000000    -0.503000000
O    -2.832000000     2.257000000    -1.356000000
O    -1.925000000     3.279000000     0.249000000
