14
-80.52358
C    -1.114000000    -0.771000000     0.514000000
H    -1.836000000    -1.477000000     0.916000000
C     0.120000000    -0.777000000     1.045000000
H     0.361000000    -1.462000000     1.855000000
C     1.065000000     0.068000000     0.584000000
H     1.993000000     0.156000000     1.128000000
C     0.772000000     0.876000000    -0.549000000
H     1.446000000     1.560000000    -1.057000000
C    -0.469000000     0.847000000    -1.150000000
H    -0.646000000     1.536000000    -1.972000000
C    -1.410000000    -0.051000000    -0.652000000
C    -2.688000000    -0.160000000    -1.346000000
O    -3.531000000    -0.926000000    -0.894000000
O    -3.044000000     0.587000000    -2.237000000
