14
-86.93051
C    -1.370000000     0.028000000    -0.548000000
H    -2.354000000    -0.071000000    -0.998000000
C    -0.770000000    -1.108000000     0.043000000
H    -1.377000000    -2.009000000     0.082000000
C     0.489000000    -0.956000000     0.557000000
H     0.869000000    -1.849000000     1.025000000
C     1.261000000     0.195000000     0.388000000
H     2.290000000     0.206000000     0.738000000
C     0.617000000     1.348000000    -0.087000000
H     1.187000000     2.262000000    -0.229000000
C    -0.662000000     1.246000000    -0.622000000
C    -1.398000000     2.449000000    -1.288000000
O    -2.486000000     2.327000000    -1.855000000
O    -0.938000000     3.545000000    -1.206000000
