14
-82.22003
C     0.785000000     1.069000000    -0.578000000
H     1.383000000     1.931000000    -0.863000000
C     0.876000000     0.598000000     0.706000000
H     1.628000000     1.020000000     1.368000000
C     0.012000000    -0.333000000     1.146000000
H     0.111000000    -0.698000000     2.157000000
C    -0.859000000    -0.996000000     0.254000000
H    -1.448000000    -1.817000000     0.653000000
C    -0.909000000    -0.572000000    -1.101000000
H    -1.596000000    -1.100000000    -1.757000000
C    -0.088000000     0.468000000    -1.489000000
C    -0.222000000     1.069000000    -2.844000000
O    -0.407000000     0.321000000    -3.831000000
O     0.342000000     2.136000000    -3.067000000
