14
-84.54632
C    -0.682000000     1.102000000    -0.715000000
H    -1.310000000     1.844000000    -1.202000000
C    -1.236000000     0.045000000    -0.038000000
H    -2.316000000    -0.068000000     0.022000000
C    -0.538000000    -0.979000000     0.512000000
H    -0.995000000    -1.867000000     0.906000000
C     0.790000000    -0.909000000     0.524000000
H     1.321000000    -1.680000000     1.077000000
C     1.463000000     0.177000000    -0.085000000
H     2.550000000     0.219000000    -0.085000000
C     0.701000000     1.246000000    -0.759000000
C     1.406000000     2.495000000    -1.261000000
O     0.687000000     3.422000000    -1.701000000
O     2.601000000     2.442000000    -1.333000000
