14
-84.51643
C    -0.356000000     0.292000000    -1.372000000
H    -0.798000000     0.557000000    -2.329000000
C    -1.163000000    -0.387000000    -0.487000000
H    -2.217000000    -0.603000000    -0.640000000
C    -0.695000000    -0.649000000     0.790000000
H    -1.375000000    -1.165000000     1.568000000
C     0.631000000    -0.271000000     1.134000000
H     1.050000000    -0.550000000     2.098000000
C     1.448000000     0.423000000     0.232000000
H     2.407000000     0.864000000     0.494000000
C     0.956000000     0.751000000    -1.010000000
C     1.811000000     1.573000000    -1.915000000
O     1.285000000     1.954000000    -2.900000000
O     2.898000000     2.010000000    -1.531000000
