14
-84.33009
C    -0.542000000     1.058000000    -0.901000000
H    -1.141000000     1.784000000    -1.444000000
C    -1.181000000    -0.115000000    -0.452000000
H    -2.221000000    -0.324000000    -0.689000000
C    -0.570000000    -0.952000000     0.497000000
H    -1.183000000    -1.849000000     0.898000000
C     0.703000000    -0.743000000     0.949000000
H     1.130000000    -1.455000000     1.651000000
C     1.348000000     0.339000000     0.438000000
H     2.390000000     0.532000000     0.678000000
C     0.773000000     1.218000000    -0.542000000
C     1.498000000     2.439000000    -1.146000000
O     1.004000000     3.034000000    -2.094000000
O     2.551000000     2.808000000    -0.714000000
