14
-90.11566
C     1.369000000     0.671000000    -0.045000000
H     2.372000000     1.076000000    -0.154000000
C     0.843000000    -0.195000000    -1.032000000
H     1.440000000    -0.492000000    -1.890000000
C    -0.510000000    -0.637000000    -0.906000000
H    -1.025000000    -1.342000000    -1.680000000
C    -1.286000000    -0.302000000     0.190000000
H    -2.292000000    -0.699000000     0.292000000
C    -0.782000000     0.472000000     1.172000000
H    -1.453000000     0.721000000     1.990000000
C     0.598000000     0.923000000     1.109000000
C     1.226000000     1.780000000     2.200000000
O     1.895000000     2.758000000     1.869000000
O     1.049000000     1.398000000     3.359000000
