14
-90.88833
C     0.597000000     1.365000000    -0.246000000
H     0.932000000     2.392000000    -0.365000000
C    -0.780000000     1.080000000    -0.224000000
H    -1.447000000     1.936000000    -0.291000000
C    -1.237000000    -0.180000000    -0.013000000
H    -2.296000000    -0.435000000     0.091000000
C    -0.319000000    -1.253000000     0.070000000
H    -0.706000000    -2.259000000     0.211000000
C     1.042000000    -0.980000000    -0.033000000
H     1.765000000    -1.789000000     0.027000000
C     1.531000000     0.311000000    -0.072000000
C     2.982000000     0.560000000    -0.176000000
O     3.343000000     1.698000000    -0.411000000
O     3.767000000    -0.376000000    -0.204000000
