14
-89.38561
C     0.646000000     1.330000000     0.069000000
H     0.977000000     2.365000000     0.102000000
C    -0.334000000     0.946000000    -0.826000000
H    -0.694000000     1.686000000    -1.535000000
C    -0.850000000    -0.388000000    -0.837000000
H    -1.533000000    -0.696000000    -1.543000000
C    -0.292000000    -1.345000000     0.051000000
H    -0.677000000    -2.361000000     0.028000000
C     0.660000000    -0.907000000     0.980000000
H     1.047000000    -1.574000000     1.746000000
C     1.171000000     0.412000000     0.989000000
C     2.121000000     0.803000000     2.128000000
O     2.577000000     1.948000000     2.183000000
O     2.429000000     0.029000000     2.983000000
