14
-88.53650
C     0.299000000     1.269000000     0.532000000
H     0.433000000     2.295000000     0.864000000
C    -0.856000000     0.964000000    -0.172000000
H    -1.554000000     1.748000000    -0.457000000
C    -1.009000000    -0.326000000    -0.629000000
H    -1.892000000    -0.608000000    -1.278000000
C    -0.063000000    -1.295000000    -0.327000000
H    -0.242000000    -2.326000000    -0.620000000
C     1.057000000    -0.922000000     0.489000000
H     1.743000000    -1.737000000     0.707000000
C     1.228000000     0.388000000     0.926000000
C     2.443000000     0.865000000     1.727000000
O     2.808000000     2.000000000     1.750000000
O     3.058000000    -0.068000000     2.282000000
