14
-88.73421
C     0.255000000     1.366000000    -0.414000000
H     0.358000000     2.359000000    -0.842000000
C    -1.007000000     0.799000000    -0.323000000
H    -1.891000000     1.421000000    -0.436000000
C    -1.092000000    -0.505000000     0.182000000
H    -2.043000000    -0.908000000     0.331000000
C    -0.020000000    -1.291000000     0.460000000
H    -0.058000000    -2.337000000     0.756000000
C     1.259000000    -0.751000000     0.178000000
H     2.134000000    -1.326000000     0.469000000
C     1.426000000     0.589000000    -0.186000000
C     2.794000000     1.252000000    -0.324000000
O     2.828000000     2.482000000    -0.562000000
O     3.854000000     0.658000000    -0.269000000
