14
-87.36031
C     0.633000000     1.260000000    -0.549000000
H     1.122000000     2.024000000    -1.148000000
C     0.110000000     0.209000000    -1.294000000
H     0.074000000     0.249000000    -2.380000000
C    -0.399000000    -0.939000000    -0.689000000
H    -0.693000000    -1.749000000    -1.310000000
C    -0.553000000    -0.976000000     0.715000000
H    -0.967000000    -1.842000000     1.225000000
C    -0.108000000     0.061000000     1.513000000
H    -0.200000000     0.026000000     2.596000000
C     0.519000000     1.137000000     0.892000000
C     1.052000000     2.251000000     1.795000000
O     1.563000000     3.235000000     1.351000000
O     0.993000000     2.118000000     3.032000000
