14
-88.67373
C     1.335000000     0.568000000    -0.410000000
H     2.316000000     0.914000000    -0.723000000
C     0.827000000    -0.675000000    -0.772000000
H     1.424000000    -1.366000000    -1.362000000
C    -0.368000000    -1.140000000    -0.280000000
H    -0.651000000    -2.154000000    -0.510000000
C    -1.169000000    -0.281000000     0.577000000
H    -2.120000000    -0.516000000     1.048000000
C    -0.725000000     0.987000000     0.858000000
H    -1.446000000     1.571000000     1.424000000
C     0.487000000     1.428000000     0.369000000
C     0.945000000     2.854000000     0.647000000
O     1.937000000     3.327000000     0.065000000
O     0.467000000     3.384000000     1.662000000
