14
-88.36293
C     0.453000000     1.206000000    -0.736000000
H     0.956000000     2.016000000    -1.256000000
C     0.300000000    -0.050000000    -1.309000000
H     0.495000000    -0.253000000    -2.359000000
C    -0.172000000    -1.103000000    -0.517000000
H    -0.276000000    -2.082000000    -1.008000000
C    -0.613000000    -0.849000000     0.802000000
H    -0.994000000    -1.598000000     1.492000000
C    -0.421000000     0.393000000     1.425000000
H    -0.651000000     0.647000000     2.457000000
C     0.102000000     1.398000000     0.621000000
C     0.391000000     2.776000000     1.208000000
O     0.598000000     3.774000000     0.563000000
O     0.564000000     2.816000000     2.421000000
