14
-77.72322
C     1.019000000     0.976000000    -0.540000000
H     1.719000000     1.688000000    -0.969000000
C     0.164000000     0.303000000    -1.284000000
H     0.320000000     0.293000000    -2.360000000
C    -0.743000000    -0.615000000    -0.756000000
H    -1.374000000    -1.246000000    -1.355000000
C    -0.966000000    -0.705000000     0.619000000
H    -1.780000000    -1.308000000     1.011000000
C    -0.091000000     0.014000000     1.418000000
H    -0.308000000    -0.010000000     2.483000000
C     0.917000000     0.837000000     0.898000000
C     1.780000000     1.628000000     1.840000000
O     2.779000000     2.332000000     1.512000000
O     1.602000000     1.617000000     3.023000000
