14
-82.56719
C     1.414000000    -0.194000000    -0.274000000
H     2.440000000    -0.355000000    -0.594000000
C     0.403000000    -0.165000000    -1.186000000
H     0.611000000    -0.455000000    -2.212000000
C    -0.895000000    -0.047000000    -0.789000000
H    -1.741000000     0.014000000    -1.468000000
C    -1.225000000     0.203000000     0.535000000
H    -2.246000000     0.375000000     0.865000000
C    -0.182000000     0.259000000     1.427000000
H    -0.456000000     0.451000000     2.461000000
C     1.186000000     0.176000000     1.081000000
C     2.411000000     0.255000000     2.024000000
O     3.514000000     0.293000000     1.539000000
O     2.290000000     0.223000000     3.207000000
