14
-91.09691
C     1.487000000     0.155000000     0.100000000
H     2.537000000     0.403000000    -0.032000000
C     0.794000000    -0.406000000    -0.981000000
H     1.351000000    -0.680000000    -1.872000000
C    -0.593000000    -0.514000000    -0.873000000
H    -1.074000000    -0.810000000    -1.760000000
C    -1.326000000    -0.193000000     0.267000000
H    -2.411000000    -0.233000000     0.203000000
C    -0.637000000     0.379000000     1.322000000
H    -1.198000000     0.844000000     2.128000000
C     0.733000000     0.586000000     1.187000000
C     1.434000000     1.382000000     2.277000000
O     2.651000000     1.315000000     2.188000000
O     0.806000000     2.134000000     3.050000000
