14
-74.26954
C     0.995000000     0.703000000    -0.772000000
H     1.582000000     1.100000000    -1.596000000
C     0.760000000    -0.631000000    -0.865000000
H     1.107000000    -1.215000000    -1.713000000
C    -0.192000000    -1.235000000    -0.057000000
H    -0.556000000    -2.194000000    -0.153000000
C    -0.811000000    -0.535000000     0.944000000
H    -1.680000000    -0.963000000     1.437000000
C    -0.393000000     0.791000000     1.163000000
H    -0.992000000     1.380000000     1.853000000
C     0.436000000     1.473000000     0.278000000
C     0.712000000     2.975000000     0.347000000
O     1.679000000     3.480000000    -0.202000000
O     0.109000000     3.769000000     1.024000000
