14
-88.89771
C     1.489000000     0.091000000     0.021000000
H     2.574000000     0.103000000    -0.041000000
C     0.679000000    -0.517000000    -0.957000000
H     1.118000000    -1.109000000    -1.755000000
C    -0.714000000    -0.535000000    -0.887000000
H    -1.285000000    -1.006000000    -1.662000000
C    -1.313000000     0.000000000     0.226000000
H    -2.397000000     0.069000000     0.281000000
C    -0.534000000     0.687000000     1.195000000
H    -1.053000000     1.116000000     2.048000000
C     0.865000000     0.801000000     1.099000000
C     1.624000000     1.529000000     2.120000000
O     2.764000000     1.219000000     2.423000000
O     1.052000000     2.414000000     2.717000000
