14
-87.49144
C     1.238000000     0.329000000     0.797000000
H     2.054000000     0.640000000     1.445000000
C     0.572000000     1.214000000    -0.103000000
H     0.843000000     2.257000000    -0.246000000
C    -0.493000000     0.726000000    -0.933000000
H    -0.883000000     1.433000000    -1.656000000
C    -0.961000000    -0.539000000    -0.661000000
H    -1.870000000    -0.872000000    -1.156000000
C    -0.364000000    -1.420000000     0.302000000
H    -0.710000000    -2.428000000     0.517000000
C     0.748000000    -0.985000000     1.038000000
C     1.413000000    -1.862000000     2.051000000
O     2.474000000    -1.474000000     2.505000000
O     0.787000000    -2.764000000     2.523000000
