14
-86.20126
C     1.289000000     0.738000000     0.209000000
H     2.220000000     1.299000000     0.214000000
C     0.322000000     1.040000000    -0.816000000
H     0.434000000     1.876000000    -1.501000000
C    -0.847000000     0.373000000    -0.873000000
H    -1.513000000     0.489000000    -1.667000000
C    -1.067000000    -0.663000000     0.089000000
H    -1.897000000    -1.358000000    -0.015000000
C    -0.121000000    -1.031000000     1.060000000
H    -0.350000000    -1.834000000     1.756000000
C     1.067000000    -0.342000000     1.144000000
C     2.143000000    -0.738000000     2.158000000
O     3.323000000    -0.502000000     2.004000000
O     1.782000000    -1.516000000     3.052000000
