14
-91.22960
C     0.963000000    -0.522000000     1.072000000
H     1.537000000    -1.029000000     1.844000000
C     0.608000000    -1.162000000    -0.104000000
H     0.852000000    -2.213000000    -0.231000000
C    -0.233000000    -0.578000000    -1.029000000
H    -0.392000000    -1.095000000    -1.998000000
C    -0.839000000     0.641000000    -0.793000000
H    -1.546000000     0.998000000    -1.537000000
C    -0.507000000     1.344000000     0.371000000
H    -0.976000000     2.312000000     0.534000000
C     0.411000000     0.793000000     1.275000000
C     0.566000000     1.431000000     2.652000000
O     1.159000000     0.845000000     3.557000000
O     0.268000000     2.633000000     2.745000000
