14
-83.03591
C     1.359000000    -0.104000000     0.599000000
H     2.415000000    -0.125000000     0.853000000
C     1.037000000     0.543000000    -0.559000000
H     1.826000000     1.149000000    -0.997000000
C    -0.266000000     0.619000000    -1.045000000
H    -0.465000000     1.220000000    -1.919000000
C    -1.289000000    -0.050000000    -0.365000000
H    -2.334000000    -0.054000000    -0.665000000
C    -0.967000000    -0.763000000     0.848000000
H    -1.723000000    -1.277000000     1.436000000
C     0.419000000    -0.837000000     1.283000000
C     0.703000000    -1.562000000     2.536000000
O     1.823000000    -1.664000000     2.906000000
O    -0.210000000    -2.030000000     3.172000000
