14
-84.51150
C     1.240000000    -0.073000000    -0.649000000
H     2.211000000    -0.122000000    -1.135000000
C     1.003000000    -0.812000000     0.461000000
H     1.741000000    -1.480000000     0.896000000
C    -0.215000000    -0.616000000     1.009000000
H    -0.418000000    -1.200000000     1.873000000
C    -1.146000000     0.278000000     0.496000000
H    -2.141000000     0.304000000     0.932000000
C    -0.859000000     0.988000000    -0.673000000
H    -1.542000000     1.720000000    -1.098000000
C     0.355000000     0.827000000    -1.276000000
C     0.730000000     1.734000000    -2.532000000
O    -0.167000000     2.490000000    -2.902000000
O     1.788000000     1.716000000    -3.069000000
