14
-84.09187
C     1.365000000    -0.153000000     0.506000000
H     2.414000000    -0.294000000     0.753000000
C     0.875000000     1.009000000    -0.088000000
H     1.536000000     1.846000000    -0.298000000
C    -0.468000000     1.058000000    -0.507000000
H    -0.862000000     1.983000000    -1.134000000
C    -1.254000000    -0.086000000    -0.318000000
H    -2.209000000    -0.063000000    -0.838000000
C    -0.734000000    -1.252000000     0.310000000
H    -1.463000000    -2.058000000     0.315000000
C     0.615000000    -1.290000000     0.711000000
C     1.166000000    -2.515000000     1.412000000
O     2.351000000    -2.491000000     1.799000000
O     0.611000000    -3.588000000     1.240000000
