14
-80.71817
C     0.889000000     0.504000000     1.022000000
H     1.600000000     0.827000000     1.778000000
C     0.058000000     1.324000000     0.317000000
H     0.049000000     2.407000000     0.416000000
C    -0.733000000     0.736000000    -0.672000000
H    -1.453000000     1.303000000    -1.284000000
C    -0.815000000    -0.640000000    -0.797000000
H    -1.389000000    -1.168000000    -1.554000000
C     0.008000000    -1.440000000    -0.060000000
H     0.018000000    -2.520000000    -0.191000000
C     0.965000000    -0.882000000     0.771000000
C     1.885000000    -1.787000000     1.571000000
O     2.736000000    -1.341000000     2.363000000
O     1.938000000    -2.926000000     1.319000000
