14
-88.27671
C     1.379000000    -0.144000000     0.289000000
H     2.443000000    -0.094000000     0.507000000
C     0.684000000     1.067000000     0.271000000
H     1.246000000     1.992000000     0.377000000
C    -0.651000000     1.040000000    -0.018000000
H    -1.182000000     2.040000000    -0.055000000
C    -1.331000000    -0.180000000    -0.273000000
H    -2.370000000    -0.239000000    -0.588000000
C    -0.647000000    -1.376000000    -0.184000000
H    -1.184000000    -2.300000000    -0.382000000
C     0.720000000    -1.395000000     0.072000000
C     1.512000000    -2.686000000     0.073000000
O     2.759000000    -2.691000000     0.033000000
O     0.969000000    -3.733000000     0.344000000
