14
-88.63620
C     1.138000000    -0.059000000     0.952000000
H     1.841000000    -0.013000000     1.779000000
C     0.554000000     1.118000000     0.484000000
H     0.684000000     2.094000000     0.944000000
C    -0.431000000     1.021000000    -0.498000000
H    -0.870000000     1.941000000    -0.727000000
C    -0.820000000    -0.218000000    -0.983000000
H    -1.620000000    -0.361000000    -1.704000000
C    -0.285000000    -1.390000000    -0.438000000
H    -0.643000000    -2.343000000    -0.819000000
C     0.745000000    -1.300000000     0.576000000
C     1.314000000    -2.524000000     1.243000000
O     1.882000000    -2.260000000     2.281000000
O     1.087000000    -3.641000000     0.817000000
