14
-81.41039
C     1.268000000     0.129000000    -0.796000000
H     2.231000000     0.073000000    -1.297000000
C     1.079000000    -0.758000000     0.277000000
H     1.922000000    -1.346000000     0.632000000
C    -0.134000000    -0.765000000     0.903000000
H    -0.281000000    -1.334000000     1.815000000
C    -1.159000000     0.062000000     0.452000000
H    -2.091000000     0.027000000     1.011000000
C    -0.970000000     1.012000000    -0.508000000
H    -1.868000000     1.530000000    -0.835000000
C     0.250000000     1.090000000    -1.137000000
C     0.281000000     1.855000000    -2.426000000
O    -0.557000000     2.666000000    -2.584000000
O     1.270000000     1.747000000    -3.161000000
