14
-83.69723
C     1.015000000     0.675000000     0.823000000
H     1.841000000     1.224000000     1.268000000
C     0.154000000     1.341000000    -0.044000000
H     0.290000000     2.417000000    -0.113000000
C    -0.786000000     0.576000000    -0.741000000
H    -1.524000000     1.124000000    -1.364000000
C    -0.897000000    -0.741000000    -0.566000000
H    -1.577000000    -1.401000000    -1.098000000
C    -0.006000000    -1.445000000     0.303000000
H    -0.221000000    -2.511000000     0.297000000
C     1.024000000    -0.710000000     0.988000000
C     2.093000000    -1.378000000     1.795000000
O     3.157000000    -0.812000000     1.946000000
O     2.008000000    -2.597000000     1.986000000
