14
-81.94286
C    -0.190000000     1.363000000    -0.524000000
H    -0.408000000     2.301000000    -1.030000000
C    -0.501000000     0.172000000    -1.224000000
H    -0.886000000     0.232000000    -2.239000000
C    -0.298000000    -1.062000000    -0.595000000
H    -0.690000000    -1.957000000    -1.080000000
C     0.295000000    -1.143000000     0.655000000
H     0.368000000    -2.076000000     1.209000000
C     0.592000000     0.062000000     1.311000000
H     0.931000000     0.024000000     2.343000000
C     0.422000000     1.320000000     0.765000000
C     0.776000000     2.651000000     1.442000000
O     0.442000000     3.745000000     1.119000000
O     1.233000000     2.438000000     2.521000000
