14
-88.90211
C     1.130000000     0.179000000    -0.949000000
H     2.112000000     0.285000000    -1.403000000
C     1.138000000    -0.423000000     0.350000000
H     2.104000000    -0.783000000     0.695000000
C    -0.033000000    -0.577000000     1.091000000
H     0.097000000    -1.119000000     2.085000000
C    -1.234000000    -0.075000000     0.613000000
H    -2.158000000    -0.173000000     1.178000000
C    -1.217000000     0.487000000    -0.669000000
H    -2.139000000     0.786000000    -1.161000000
C    -0.053000000     0.761000000    -1.422000000
C     0.014000000     1.443000000    -2.811000000
O    -1.017000000     1.784000000    -3.314000000
O     1.097000000     1.469000000    -3.421000000
