14
-81.35778
C    -0.044000000     1.442000000     0.241000000
H    -0.149000000     2.524000000     0.220000000
C     0.078000000     0.836000000    -0.990000000
H     0.226000000     1.474000000    -1.857000000
C     0.092000000    -0.524000000    -1.114000000
H     0.390000000    -0.855000000    -2.088000000
C    -0.242000000    -1.288000000     0.001000000
H    -0.189000000    -2.368000000    -0.110000000
C    -0.421000000    -0.720000000     1.260000000
H    -0.782000000    -1.362000000     2.059000000
C    -0.301000000     0.673000000     1.437000000
C    -0.397000000     1.379000000     2.714000000
O    -0.592000000     2.564000000     2.753000000
O    -0.164000000     0.796000000     3.750000000
