14
-86.68717
C    -0.385000000     1.438000000     0.292000000
H    -0.862000000     2.402000000     0.450000000
C    -0.610000000     0.743000000    -0.898000000
H    -1.152000000     1.286000000    -1.668000000
C    -0.049000000    -0.515000000    -1.132000000
H    -0.010000000    -0.921000000    -2.169000000
C     0.488000000    -1.236000000    -0.012000000
H     0.737000000    -2.286000000    -0.146000000
C     0.638000000    -0.567000000     1.243000000
H     1.042000000    -1.112000000     2.092000000
C     0.182000000     0.741000000     1.373000000
C     0.295000000     1.497000000     2.645000000
O    -0.262000000     2.581000000     2.855000000
O     0.766000000     0.843000000     3.548000000
