14
-87.10537
C    -0.095000000     1.266000000     0.851000000
H    -0.256000000     2.235000000     1.317000000
C    -0.805000000     0.999000000    -0.384000000
H    -1.579000000     1.724000000    -0.624000000
C    -0.666000000    -0.269000000    -1.051000000
H    -1.271000000    -0.505000000    -1.920000000
C     0.220000000    -1.192000000    -0.492000000
H     0.339000000    -2.195000000    -0.895000000
C     0.992000000    -0.875000000     0.660000000
H     1.523000000    -1.735000000     1.059000000
C     0.815000000     0.288000000     1.378000000
C     1.650000000     0.586000000     2.552000000
O     1.696000000     1.736000000     2.929000000
O     2.255000000    -0.325000000     3.145000000
