14
-85.43835
C     0.359000000     1.403000000     0.483000000
H     0.538000000     2.430000000     0.792000000
C     0.397000000     0.963000000    -0.866000000
H     0.644000000     1.679000000    -1.646000000
C     0.225000000    -0.350000000    -1.140000000
H     0.456000000    -0.661000000    -2.211000000
C    -0.232000000    -1.229000000    -0.216000000
H    -0.468000000    -2.250000000    -0.505000000
C    -0.378000000    -0.823000000     1.091000000
H    -0.593000000    -1.614000000     1.805000000
C    -0.033000000     0.486000000     1.471000000
C    -0.123000000     0.898000000     2.977000000
O     0.083000000     2.061000000     3.242000000
O    -0.544000000     0.155000000     3.823000000
