14
-88.21638
C    -0.310000000     1.398000000     0.103000000
H    -0.496000000     2.468000000     0.086000000
C    -0.074000000     0.656000000    -1.067000000
H     0.049000000     1.178000000    -2.012000000
C     0.211000000    -0.688000000    -0.997000000
H     0.465000000    -1.230000000    -1.877000000
C     0.250000000    -1.358000000     0.245000000
H     0.416000000    -2.431000000     0.283000000
C    -0.104000000    -0.634000000     1.387000000
H    -0.162000000    -1.183000000     2.324000000
C    -0.283000000     0.788000000     1.340000000
C    -0.508000000     1.536000000     2.571000000
O    -0.712000000     2.722000000     2.448000000
O    -0.663000000     0.959000000     3.620000000
