14
-81.53449
C     0.224000000     1.479000000     0.225000000
H     0.337000000     2.560000000     0.211000000
C     0.539000000     0.769000000    -0.962000000
H     0.819000000     1.297000000    -1.869000000
C     0.268000000    -0.604000000    -1.029000000
H     0.550000000    -1.179000000    -1.919000000
C    -0.268000000    -1.280000000     0.079000000
H    -0.412000000    -2.358000000     0.084000000
C    -0.613000000    -0.543000000     1.217000000
H    -0.804000000    -1.140000000     2.105000000
C    -0.348000000     0.820000000     1.349000000
C    -0.667000000     1.525000000     2.578000000
O    -0.196000000     2.622000000     2.757000000
O    -1.409000000     1.105000000     3.418000000
