14
-87.44498
C     0.372000000     0.468000000     1.366000000
H     0.691000000     0.781000000     2.357000000
C     0.994000000     0.889000000     0.138000000
H     1.861000000     1.530000000     0.278000000
C     0.580000000     0.404000000    -1.079000000
H     1.008000000     0.771000000    -2.070000000
C    -0.520000000    -0.505000000    -1.075000000
H    -0.928000000    -0.886000000    -2.007000000
C    -1.206000000    -0.908000000     0.131000000
H    -2.091000000    -1.536000000     0.075000000
C    -0.737000000    -0.437000000     1.336000000
C    -1.439000000    -0.951000000     2.623000000
O    -1.360000000    -0.315000000     3.653000000
O    -2.126000000    -1.967000000     2.607000000
