14
-89.43576
C    -0.873000000    -0.395000000     1.184000000
H    -1.527000000    -0.771000000     1.966000000
C    -0.933000000    -0.829000000    -0.161000000
H    -1.833000000    -1.423000000    -0.293000000
C    -0.129000000    -0.393000000    -1.173000000
H    -0.366000000    -0.710000000    -2.205000000
C     0.930000000     0.446000000    -0.879000000
H     1.552000000     0.833000000    -1.683000000
C     1.121000000     0.845000000     0.458000000
H     1.997000000     1.460000000     0.644000000
C     0.282000000     0.414000000     1.472000000
C     0.531000000     0.789000000     2.918000000
O    -0.415000000     0.681000000     3.696000000
O     1.573000000     1.356000000     3.257000000
