14
-77.51109
C    -0.681000000    -0.509000000     1.206000000
H    -1.148000000    -0.919000000     2.098000000
C    -1.135000000    -0.694000000    -0.093000000
H    -2.097000000    -1.146000000    -0.322000000
C    -0.438000000    -0.199000000    -1.145000000
H    -0.893000000    -0.301000000    -2.113000000
C     0.691000000     0.481000000    -0.915000000
H     1.236000000     1.029000000    -1.680000000
C     1.195000000     0.642000000     0.379000000
H     2.115000000     1.213000000     0.477000000
C     0.518000000     0.167000000     1.497000000
C     1.205000000     0.304000000     2.877000000
O     0.606000000     0.222000000     3.912000000
O     2.269000000     0.945000000     2.933000000
