14
-89.98914
C    -0.854000000     1.088000000     0.593000000
H    -1.539000000     1.840000000     0.974000000
C    -0.686000000     0.790000000    -0.773000000
H    -1.193000000     1.459000000    -1.463000000
C     0.088000000    -0.278000000    -1.227000000
H     0.175000000    -0.343000000    -2.300000000
C     0.778000000    -1.031000000    -0.275000000
H     1.477000000    -1.814000000    -0.557000000
C     0.568000000    -0.800000000     1.094000000
H     1.128000000    -1.406000000     1.803000000
C    -0.169000000     0.339000000     1.558000000
C    -0.287000000     0.526000000     3.020000000
O    -0.508000000     1.640000000     3.479000000
O    -0.180000000    -0.428000000     3.791000000
