14
-83.87137
C     0.564000000     0.287000000     1.281000000
H     0.800000000     0.484000000     2.324000000
C     0.014000000    -0.927000000     0.920000000
H     0.076000000    -1.796000000     1.570000000
C    -0.370000000    -1.098000000    -0.398000000
H    -0.675000000    -2.049000000    -0.772000000
C    -0.466000000    -0.019000000    -1.242000000
H    -0.833000000    -0.157000000    -2.256000000
C     0.011000000     1.237000000    -0.802000000
H    -0.114000000     2.116000000    -1.430000000
C     0.635000000     1.379000000     0.437000000
C     1.037000000     2.702000000     1.012000000
O     1.836000000     2.835000000     1.952000000
O     0.466000000     3.633000000     0.576000000
