14
-88.54008
C     0.047000000     0.116000000     1.530000000
H     0.052000000     0.010000000     2.612000000
C    -0.027000000    -1.078000000     0.771000000
H    -0.029000000    -2.068000000     1.221000000
C     0.013000000    -1.019000000    -0.646000000
H    -0.154000000    -1.982000000    -1.203000000
C    -0.005000000     0.156000000    -1.337000000
H    -0.029000000     0.088000000    -2.421000000
C    -0.127000000     1.358000000    -0.596000000
H    -0.353000000     2.275000000    -1.135000000
C    -0.008000000     1.325000000     0.796000000
C    -0.025000000     2.630000000     1.614000000
O     0.449000000     2.624000000     2.736000000
O    -0.529000000     3.666000000     1.189000000
