14
-91.11301
C    -0.020000000     1.390000000    -0.520000000
H    -0.037000000     2.347000000    -1.036000000
C    -0.679000000     0.279000000    -1.106000000
H    -1.230000000     0.454000000    -2.027000000
C    -0.558000000    -0.955000000    -0.480000000
H    -1.083000000    -1.814000000    -0.890000000
C     0.110000000    -1.146000000     0.740000000
H     0.127000000    -2.142000000     1.177000000
C     0.692000000     0.024000000     1.329000000
H     1.239000000    -0.140000000     2.254000000
C     0.655000000     1.254000000     0.678000000
C     1.514000000     2.377000000     1.260000000
O     1.409000000     3.561000000     0.897000000
O     2.363000000     2.121000000     2.097000000
