14
-85.36092
C     0.532000000     0.550000000     1.189000000
H     1.222000000     0.882000000     1.961000000
C     0.794000000    -0.699000000     0.716000000
H     1.580000000    -1.261000000     1.215000000
C     0.146000000    -1.167000000    -0.434000000
H     0.338000000    -2.121000000    -0.850000000
C    -0.810000000    -0.334000000    -1.012000000
H    -1.217000000    -0.642000000    -1.972000000
C    -1.080000000     0.960000000    -0.510000000
H    -1.817000000     1.600000000    -0.988000000
C    -0.353000000     1.479000000     0.551000000
C    -0.419000000     2.888000000     1.000000000
O     0.358000000     3.247000000     1.831000000
O    -1.149000000     3.711000000     0.462000000
