14
-87.25849
C     0.336000000     0.422000000     1.360000000
H     0.730000000     0.681000000     2.339000000
C     0.543000000    -0.855000000     0.853000000
H     1.133000000    -1.594000000     1.389000000
C     0.194000000    -1.194000000    -0.396000000
H     0.332000000    -2.111000000    -0.839000000
C    -0.443000000    -0.229000000    -1.197000000
H    -0.726000000    -0.460000000    -2.221000000
C    -0.751000000     1.022000000    -0.703000000
H    -1.251000000     1.780000000    -1.301000000
C    -0.397000000     1.433000000     0.626000000
C    -0.594000000     2.847000000     1.164000000
O    -0.200000000     3.136000000     2.255000000
O    -1.101000000     3.697000000     0.405000000
