14
-82.30675
C     0.229000000     1.402000000    -0.530000000
H     0.117000000     2.363000000    -1.026000000
C    -0.701000000     0.392000000    -1.014000000
H    -1.315000000     0.627000000    -1.880000000
C    -0.782000000    -0.875000000    -0.400000000
H    -1.572000000    -1.547000000    -0.737000000
C     0.065000000    -1.201000000     0.624000000
H    -0.039000000    -2.207000000     1.021000000
C     1.025000000    -0.277000000     1.061000000
H     1.739000000    -0.482000000     1.855000000
C     1.097000000     1.059000000     0.546000000
C     2.003000000     2.180000000     1.098000000
O     1.904000000     3.286000000     0.693000000
O     2.701000000     1.996000000     2.089000000
