14
-86.00970
C     0.431000000     1.198000000    -0.758000000
H     0.732000000     2.023000000    -1.398000000
C    -0.210000000     0.057000000    -1.282000000
H    -0.558000000    -0.001000000    -2.310000000
C    -0.560000000    -0.979000000    -0.428000000
H    -1.148000000    -1.880000000    -0.896000000
C    -0.214000000    -0.995000000     0.920000000
H    -0.417000000    -1.852000000     1.557000000
C     0.390000000     0.196000000     1.440000000
H     0.681000000     0.263000000     2.485000000
C     0.711000000     1.256000000     0.559000000
C     1.494000000     2.418000000     1.095000000
O     1.332000000     3.509000000     0.544000000
O     2.050000000     2.355000000     2.152000000
