14
-88.94012
C     0.920000000    -0.112000000    -1.163000000
H     1.592000000    -0.234000000    -2.008000000
C     0.281000000    -1.200000000    -0.544000000
H     0.452000000    -2.207000000    -0.916000000
C    -0.578000000    -0.971000000     0.539000000
H    -0.905000000    -1.776000000     1.271000000
C    -0.748000000     0.343000000     0.985000000
H    -1.275000000     0.460000000     1.929000000
C    -0.125000000     1.414000000     0.376000000
H    -0.369000000     2.429000000     0.680000000
C     0.744000000     1.200000000    -0.688000000
C     1.250000000     2.432000000    -1.448000000
O     2.021000000     2.329000000    -2.417000000
O     0.960000000     3.561000000    -1.080000000
