14
-86.14488
C     1.017000000     0.267000000    -1.079000000
H     1.653000000     0.615000000    -1.889000000
C    -0.006000000    -0.614000000    -1.191000000
H    -0.164000000    -1.166000000    -2.114000000
C    -0.872000000    -0.877000000    -0.140000000
H    -1.593000000    -1.653000000    -0.224000000
C    -0.725000000    -0.100000000     1.021000000
H    -1.454000000    -0.347000000     1.789000000
C     0.302000000     0.825000000     1.230000000
H     0.480000000     1.315000000     2.184000000
C     1.189000000     0.967000000     0.158000000
C     2.231000000     2.100000000     0.357000000
O     3.108000000     2.195000000    -0.461000000
O     2.156000000     2.773000000     1.329000000
