14
-76.06035
C     0.858000000    -0.386000000    -1.082000000
H     1.436000000    -0.983000000    -1.782000000
C    -0.408000000    -0.788000000    -0.838000000
H    -0.940000000    -1.576000000    -1.364000000
C    -1.214000000    -0.137000000     0.029000000
H    -2.224000000    -0.353000000     0.107000000
C    -0.647000000     0.655000000     0.990000000
H    -1.230000000     1.015000000     1.834000000
C     0.715000000     0.973000000     0.865000000
H     1.177000000     1.563000000     1.652000000
C     1.478000000     0.500000000    -0.250000000
C     2.990000000     0.616000000    -0.327000000
O     3.647000000     0.009000000    -1.134000000
O     3.577000000     1.273000000     0.499000000
