14
-89.11246
C     0.952000000    -0.978000000    -0.605000000
H     1.464000000    -1.745000000    -1.179000000
C    -0.361000000    -0.839000000    -0.981000000
H    -0.852000000    -1.473000000    -1.715000000
C    -1.180000000     0.081000000    -0.324000000
H    -2.191000000     0.151000000    -0.743000000
C    -0.654000000     0.757000000     0.768000000
H    -1.305000000     1.474000000     1.262000000
C     0.691000000     0.721000000     1.132000000
H     1.020000000     1.341000000     1.962000000
C     1.515000000    -0.174000000     0.441000000
C     2.970000000    -0.272000000     0.834000000
O     3.649000000    -1.210000000     0.396000000
O     3.505000000     0.665000000     1.410000000
