14
-93.02504
C     1.061000000    -0.291000000    -1.022000000
H     1.795000000    -0.485000000    -1.800000000
C    -0.332000000    -0.222000000    -1.307000000
H    -0.718000000    -0.390000000    -2.309000000
C    -1.218000000     0.004000000    -0.209000000
H    -2.297000000     0.059000000    -0.458000000
C    -0.725000000     0.334000000     1.059000000
H    -1.319000000     0.592000000     1.932000000
C     0.635000000     0.228000000     1.301000000
H     1.028000000     0.490000000     2.280000000
C     1.503000000    -0.072000000     0.266000000
C     3.007000000    -0.098000000     0.548000000
O     3.788000000    -0.140000000    -0.386000000
O     3.377000000    -0.137000000     1.710000000
