14
-85.24949
C     0.721000000    -0.260000000    -1.253000000
H     1.207000000    -0.530000000    -2.188000000
C    -0.637000000    -0.355000000    -1.159000000
H    -1.277000000    -0.612000000    -1.999000000
C    -1.226000000    -0.036000000     0.047000000
H    -2.292000000    -0.046000000     0.235000000
C    -0.401000000     0.386000000     1.121000000
H    -0.883000000     0.558000000     2.080000000
C     0.969000000     0.450000000     1.039000000
H     1.596000000     0.565000000     1.920000000
C     1.555000000     0.032000000    -0.186000000
C     3.017000000     0.014000000    -0.294000000
O     3.484000000     0.193000000    -1.360000000
O     3.700000000    -0.337000000     0.682000000
