14
-84.40574
C     1.144000000    -0.722000000    -0.625000000
H     1.883000000    -1.330000000    -1.140000000
C    -0.211000000    -0.964000000    -0.819000000
H    -0.533000000    -1.590000000    -1.648000000
C    -1.158000000    -0.163000000    -0.217000000
H    -2.212000000    -0.273000000    -0.584000000
C    -0.857000000     0.692000000     0.809000000
H    -1.717000000     1.133000000     1.306000000
C     0.448000000     0.940000000     1.092000000
H     0.768000000     1.701000000     1.800000000
C     1.461000000     0.226000000     0.405000000
C     2.987000000     0.400000000     0.598000000
O     3.786000000    -0.064000000    -0.201000000
O     3.449000000     1.055000000     1.528000000
