14
-84.45560
C     1.186000000    -0.501000000    -0.713000000
H     2.035000000    -0.871000000    -1.283000000
C    -0.170000000    -0.617000000    -1.069000000
H    -0.514000000    -1.204000000    -1.917000000
C    -1.167000000    -0.075000000    -0.299000000
H    -2.172000000    -0.167000000    -0.605000000
C    -0.854000000     0.413000000     0.945000000
H    -1.618000000     0.680000000     1.671000000
C     0.476000000     0.651000000     1.182000000
H     0.647000000     1.153000000     2.130000000
C     1.506000000     0.245000000     0.386000000
C     2.951000000     0.619000000     0.590000000
O     3.763000000     0.534000000    -0.328000000
O     3.319000000     0.906000000     1.710000000
