14
-88.70907
C     1.196000000    -0.212000000    -0.734000000
H     2.115000000    -0.550000000    -1.206000000
C    -0.081000000    -0.600000000    -1.161000000
H    -0.295000000    -1.174000000    -2.059000000
C    -1.161000000    -0.254000000    -0.372000000
H    -2.163000000    -0.710000000    -0.503000000
C    -0.928000000     0.413000000     0.794000000
H    -1.716000000     0.594000000     1.522000000
C     0.334000000     0.843000000     1.234000000
H     0.467000000     1.303000000     2.210000000
C     1.433000000     0.493000000     0.388000000
C     2.870000000     0.786000000     0.838000000
O     3.794000000     0.493000000     0.085000000
O     2.994000000     1.448000000     1.854000000
