14
-87.34437
C     0.188000000    -0.258000000    -1.419000000
H     0.252000000    -0.225000000    -2.503000000
C    -0.463000000     0.806000000    -0.895000000
H    -0.879000000     1.574000000    -1.542000000
C    -0.564000000     0.988000000     0.457000000
H    -1.024000000     1.831000000     0.823000000
C    -0.080000000    -0.012000000     1.270000000
H    -0.201000000     0.193000000     2.330000000
C     0.598000000    -1.167000000     0.756000000
H     1.043000000    -1.883000000     1.442000000
C     0.696000000    -1.282000000    -0.586000000
C     1.460000000    -2.462000000    -1.162000000
O     1.756000000    -2.498000000    -2.356000000
O     1.843000000    -3.342000000    -0.407000000
