14
-82.42256
C     0.811000000     1.115000000     0.640000000
H     1.568000000     1.801000000     1.011000000
C     1.074000000    -0.294000000     0.672000000
H     1.930000000    -0.700000000     1.205000000
C     0.224000000    -1.201000000     0.125000000
H     0.367000000    -2.276000000     0.341000000
C    -0.936000000    -0.716000000    -0.491000000
H    -1.626000000    -1.419000000    -0.951000000
C    -1.188000000     0.617000000    -0.626000000
H    -1.987000000     0.995000000    -1.258000000
C    -0.283000000     1.574000000    -0.059000000
C    -0.549000000     3.012000000    -0.233000000
O    -1.364000000     3.460000000    -1.025000000
O     0.065000000     3.834000000     0.382000000
