14
-83.49646
C     1.209000000    -0.158000000    -0.781000000
H     2.023000000    -0.243000000    -1.496000000
C     0.333000000     0.857000000    -0.930000000
H     0.493000000     1.488000000    -1.800000000
C    -0.700000000     1.066000000    -0.025000000
H    -1.430000000     1.819000000    -0.115000000
C    -0.820000000     0.137000000     0.919000000
H    -1.722000000     0.142000000     1.526000000
C     0.048000000    -0.959000000     1.173000000
H    -0.268000000    -1.763000000     1.833000000
C     1.113000000    -1.093000000     0.304000000
C     2.026000000    -2.268000000     0.423000000
O     2.951000000    -2.467000000    -0.339000000
O     1.784000000    -3.047000000     1.328000000
