14
-79.17651
C     0.419000000    -0.727000000    -1.224000000
H     0.704000000    -1.270000000    -2.121000000
C    -0.130000000     0.540000000    -1.240000000
H    -0.342000000     1.062000000    -2.170000000
C    -0.484000000     1.144000000     0.000000000
H    -0.905000000     2.141000000    -0.084000000
C    -0.070000000     0.515000000     1.222000000
H    -0.471000000     1.055000000     2.076000000
C     0.444000000    -0.734000000     1.230000000
H     0.561000000    -1.144000000     2.230000000
C     0.682000000    -1.392000000    -0.015000000
C     1.381000000    -2.783000000    -0.037000000
O     1.289000000    -3.525000000    -0.995000000
O     1.731000000    -3.277000000     1.002000000
