14
-84.58316
C     1.167000000     0.066000000    -0.873000000
H     2.098000000     0.214000000    -1.414000000
C     1.178000000     0.179000000     0.528000000
H     2.092000000     0.404000000     1.072000000
C     0.017000000     0.228000000     1.193000000
H     0.125000000     0.428000000     2.222000000
C    -1.164000000    -0.081000000     0.510000000
H    -2.078000000    -0.020000000     1.096000000
C    -1.185000000    -0.448000000    -0.829000000
H    -2.120000000    -0.637000000    -1.350000000
C    -0.018000000    -0.248000000    -1.544000000
C     0.041000000    -0.509000000    -3.028000000
O     1.087000000    -0.657000000    -3.583000000
O    -1.034000000    -0.608000000    -3.561000000
