14
-79.25710
C     0.190000000    -0.849000000    -1.160000000
H     0.254000000    -1.433000000    -2.075000000
C    -0.040000000     0.506000000    -1.218000000
H    -0.052000000     1.017000000    -2.177000000
C    -0.248000000     1.209000000    -0.044000000
H    -0.398000000     2.314000000    -0.090000000
C    -0.316000000     0.524000000     1.138000000
H    -0.382000000     1.169000000     2.010000000
C    -0.141000000    -0.882000000     1.243000000
H    -0.109000000    -1.400000000     2.198000000
C     0.183000000    -1.592000000     0.062000000
C     0.552000000    -3.002000000     0.044000000
O     1.497000000    -3.332000000    -0.587000000
O     0.062000000    -3.725000000     0.857000000
