14
-91.77368
C     0.822000000    -0.198000000    -1.216000000
H     1.521000000    -0.267000000    -2.046000000
C     1.290000000     0.353000000    -0.017000000
H     2.311000000     0.721000000    -0.073000000
C     0.422000000     0.429000000     1.092000000
H     0.814000000     0.926000000     1.957000000
C    -0.858000000    -0.139000000     0.996000000
H    -1.496000000     0.028000000     1.860000000
C    -1.283000000    -0.690000000    -0.184000000
H    -2.311000000    -1.027000000    -0.292000000
C    -0.496000000    -0.696000000    -1.327000000
C    -1.093000000    -1.018000000    -2.685000000
O    -0.523000000    -0.699000000    -3.708000000
O    -2.209000000    -1.527000000    -2.694000000
