14
-82.73422
C     0.381000000    -0.496000000    -1.359000000
H     0.790000000    -0.871000000    -2.294000000
C     1.181000000     0.234000000    -0.439000000
H     2.242000000     0.396000000    -0.615000000
C     0.713000000     0.537000000     0.816000000
H     1.283000000     1.082000000     1.461000000
C    -0.581000000     0.396000000     1.122000000
H    -0.913000000     0.752000000     2.094000000
C    -1.452000000    -0.199000000     0.198000000
H    -2.480000000    -0.344000000     0.521000000
C    -0.955000000    -0.692000000    -1.056000000
C    -1.818000000    -1.443000000    -2.091000000
O    -1.396000000    -1.638000000    -3.230000000
O    -2.963000000    -1.763000000    -1.863000000
