14
-89.81482
C     0.660000000    -0.239000000    -1.336000000
H     1.248000000    -0.478000000    -2.218000000
C     1.315000000     0.173000000    -0.167000000
H     2.392000000     0.324000000    -0.166000000
C     0.621000000     0.426000000     1.019000000
H     1.206000000     0.887000000     1.879000000
C    -0.751000000     0.207000000     1.034000000
H    -1.363000000     0.447000000     1.899000000
C    -1.385000000    -0.366000000    -0.123000000
H    -2.412000000    -0.705000000    -0.017000000
C    -0.703000000    -0.544000000    -1.341000000
C    -1.483000000    -1.067000000    -2.455000000
O    -0.914000000    -1.508000000    -3.426000000
O    -2.714000000    -1.161000000    -2.276000000
