14
-87.34599
C    -1.028000000    -0.055000000    -1.108000000
H    -1.755000000    -0.166000000    -1.909000000
C     0.307000000     0.148000000    -1.239000000
H     0.719000000     0.425000000    -2.207000000
C     1.142000000     0.263000000    -0.148000000
H     2.166000000     0.601000000    -0.323000000
C     0.704000000     0.136000000     1.125000000
H     1.459000000     0.212000000     1.903000000
C    -0.638000000    -0.224000000     1.321000000
H    -1.030000000    -0.394000000     2.320000000
C    -1.477000000    -0.316000000     0.229000000
C    -2.914000000    -0.726000000     0.411000000
O    -3.748000000    -0.757000000    -0.477000000
O    -3.289000000    -0.992000000     1.560000000
