14
-83.43059
C    -0.733000000    -1.132000000    -0.521000000
H    -1.229000000    -1.995000000    -0.957000000
C     0.494000000    -0.613000000    -1.018000000
H     0.897000000    -1.080000000    -1.913000000
C     1.175000000     0.393000000    -0.327000000
H     2.135000000     0.760000000    -0.683000000
C     0.473000000     1.002000000     0.703000000
H     0.948000000     1.781000000     1.294000000
C    -0.761000000     0.566000000     1.100000000
H    -1.272000000     1.130000000     1.877000000
C    -1.376000000    -0.561000000     0.583000000
C    -2.816000000    -0.959000000     0.877000000
O    -3.468000000    -1.829000000     0.254000000
O    -3.335000000    -0.314000000     1.701000000
