14
-87.72783
C    -0.787000000    -0.106000000    -1.221000000
H    -1.252000000    -0.082000000    -2.203000000
C     0.591000000     0.260000000    -1.118000000
H     1.311000000     0.396000000    -1.921000000
C     1.177000000     0.305000000     0.143000000
H     2.262000000     0.583000000     0.243000000
C     0.457000000    -0.062000000     1.254000000
H     0.821000000     0.114000000     2.263000000
C    -0.860000000    -0.418000000     1.139000000
H    -1.373000000    -0.739000000     2.042000000
C    -1.530000000    -0.334000000    -0.056000000
C    -3.007000000    -0.770000000    -0.231000000
O    -3.549000000    -0.851000000    -1.322000000
O    -3.623000000    -0.848000000     0.816000000
