14
-80.50076
C    -0.684000000     0.015000000    -1.247000000
H    -1.091000000     0.273000000    -2.222000000
C     0.689000000     0.307000000    -1.127000000
H     1.371000000     0.553000000    -1.937000000
C     1.171000000     0.133000000     0.150000000
H     2.224000000     0.371000000     0.284000000
C     0.401000000    -0.255000000     1.266000000
H     0.848000000    -0.232000000     2.257000000
C    -0.975000000    -0.524000000     1.053000000
H    -1.644000000    -0.818000000     1.858000000
C    -1.474000000    -0.342000000    -0.215000000
C    -2.944000000    -0.443000000    -0.467000000
O    -3.342000000     0.073000000    -1.452000000
O    -3.629000000    -0.851000000     0.412000000
