14
-89.53789
C     0.076000000     1.463000000    -0.030000000
H     0.136000000     2.546000000     0.043000000
C     1.146000000     0.626000000     0.051000000
H     2.121000000     1.097000000     0.140000000
C     0.995000000    -0.776000000    -0.033000000
H     1.821000000    -1.420000000     0.006000000
C    -0.276000000    -1.343000000    -0.061000000
H    -0.368000000    -2.426000000    -0.086000000
C    -1.396000000    -0.443000000    -0.168000000
H    -2.404000000    -0.809000000    -0.343000000
C    -1.224000000     0.953000000    -0.133000000
C    -2.518000000     1.751000000    -0.114000000
O    -2.458000000     2.895000000    -0.532000000
O    -3.558000000     1.359000000     0.439000000
