14
-88.47790
C     0.305000000     1.066000000    -0.922000000
H     0.722000000     1.798000000    -1.610000000
C     0.925000000    -0.124000000    -0.884000000
H     1.799000000    -0.342000000    -1.492000000
C     0.435000000    -1.134000000    -0.078000000
H     0.909000000    -2.109000000    -0.101000000
C    -0.562000000    -0.871000000     0.861000000
H    -0.819000000    -1.555000000     1.666000000
C    -1.183000000     0.400000000     0.908000000
H    -2.017000000     0.616000000     1.571000000
C    -0.714000000     1.391000000     0.023000000
C    -1.330000000     2.800000000     0.033000000
O    -0.937000000     3.628000000    -0.782000000
O    -2.283000000     3.100000000     0.743000000
