14
-85.45422
C    -0.933000000     0.697000000    -0.884000000
H    -1.410000000     1.231000000    -1.703000000
C     0.447000000     0.650000000    -1.057000000
H     0.961000000     1.159000000    -1.869000000
C     1.215000000    -0.104000000    -0.146000000
H     2.239000000    -0.171000000    -0.319000000
C     0.623000000    -0.792000000     0.896000000
H     1.234000000    -1.362000000     1.591000000
C    -0.747000000    -0.722000000     1.086000000
H    -1.202000000    -1.306000000     1.882000000
C    -1.562000000     0.013000000     0.195000000
C    -3.048000000     0.157000000     0.340000000
O    -3.738000000     0.824000000    -0.411000000
O    -3.583000000    -0.523000000     1.157000000
