14
-78.64064
C    -0.162000000     1.415000000    -0.474000000
H    -0.021000000     2.442000000    -0.802000000
C     0.273000000     1.032000000     0.782000000
H     0.518000000     1.790000000     1.521000000
C     0.342000000    -0.337000000     1.178000000
H     0.712000000    -0.719000000     2.137000000
C     0.005000000    -1.288000000     0.229000000
H     0.108000000    -2.325000000     0.537000000
C    -0.482000000    -0.904000000    -0.982000000
H    -0.795000000    -1.652000000    -1.705000000
C    -0.528000000     0.447000000    -1.437000000
C    -0.870000000     0.823000000    -2.878000000
O    -0.848000000     1.921000000    -3.294000000
O    -1.315000000    -0.005000000    -3.665000000
