14
-88.07887
C     1.365000000    -0.102000000    -0.332000000
H     2.431000000    -0.308000000    -0.388000000
C     0.740000000    -0.605000000     0.818000000
H     1.281000000    -1.263000000     1.493000000
C    -0.604000000    -0.486000000     0.989000000
H    -1.097000000    -0.927000000     1.876000000
C    -1.301000000     0.195000000    -0.009000000
H    -2.376000000     0.319000000     0.099000000
C    -0.676000000     0.825000000    -1.075000000
H    -1.291000000     1.369000000    -1.788000000
C     0.722000000     0.713000000    -1.281000000
C     1.430000000     1.232000000    -2.575000000
O     0.942000000     2.033000000    -3.340000000
O     2.593000000     0.892000000    -2.675000000
