14
-81.97847
C     1.199000000     0.281000000    -0.792000000
H     2.194000000     0.363000000    -1.220000000
C     1.142000000    -0.516000000     0.341000000
H     2.025000000    -1.058000000     0.672000000
C    -0.071000000    -0.753000000     0.968000000
H    -0.104000000    -1.439000000     1.785000000
C    -1.257000000    -0.059000000     0.571000000
H    -2.200000000    -0.211000000     1.088000000
C    -1.151000000     0.896000000    -0.454000000
H    -2.004000000     1.489000000    -0.774000000
C     0.066000000     1.027000000    -1.225000000
C     0.051000000     1.869000000    -2.426000000
O     1.073000000     1.955000000    -3.090000000
O    -0.834000000     2.617000000    -2.654000000
