14
-83.78946
C    -0.808000000     1.099000000     0.432000000
H    -1.394000000     1.846000000     0.961000000
C     0.117000000     0.376000000     1.209000000
H     0.203000000     0.649000000     2.258000000
C     0.896000000    -0.613000000     0.638000000
H     1.633000000    -1.072000000     1.281000000
C     0.652000000    -0.925000000    -0.693000000
H     1.176000000    -1.784000000    -1.105000000
C    -0.347000000    -0.263000000    -1.421000000
H    -0.654000000    -0.675000000    -2.379000000
C    -1.087000000     0.859000000    -0.904000000
C    -2.165000000     1.504000000    -1.716000000
O    -2.790000000     2.449000000    -1.202000000
O    -2.402000000     1.338000000    -2.898000000
