14
-85.39259
C     0.190000000     1.410000000    -0.242000000
H     0.353000000     2.474000000    -0.392000000
C     0.716000000     0.813000000     0.905000000
H     1.250000000     1.388000000     1.658000000
C     0.456000000    -0.600000000     0.982000000
H     0.770000000    -1.165000000     1.793000000
C    -0.304000000    -1.215000000     0.054000000
H    -0.464000000    -2.280000000     0.203000000
C    -0.726000000    -0.597000000    -1.179000000
H    -1.196000000    -1.184000000    -1.963000000
C    -0.465000000     0.765000000    -1.328000000
C    -0.829000000     1.531000000    -2.552000000
O    -0.458000000     2.650000000    -2.660000000
O    -1.645000000     0.999000000    -3.306000000
