14
-88.56762
C     1.178000000    -0.851000000    -0.272000000
H     2.102000000    -1.417000000    -0.369000000
C     0.358000000    -0.871000000     0.831000000
H     0.728000000    -1.508000000     1.631000000
C    -0.760000000    -0.058000000     1.017000000
H    -1.332000000     0.054000000     1.916000000
C    -1.174000000     0.679000000    -0.094000000
H    -2.037000000     1.337000000    -0.024000000
C    -0.395000000     0.654000000    -1.260000000
H    -0.629000000     1.310000000    -2.095000000
C     0.792000000    -0.069000000    -1.339000000
C     1.812000000     0.259000000    -2.412000000
O     1.476000000     0.980000000    -3.334000000
O     2.903000000    -0.271000000    -2.415000000
