14
-91.20540
C    -0.818000000     0.943000000     0.760000000
H    -1.328000000     1.631000000     1.430000000
C    -0.011000000    -0.026000000     1.339000000
H     0.073000000    -0.216000000     2.406000000
C     0.774000000    -0.845000000     0.525000000
H     1.432000000    -1.611000000     0.989000000
C     0.793000000    -0.578000000    -0.855000000
H     1.414000000    -1.140000000    -1.547000000
C    -0.068000000     0.384000000    -1.391000000
H    -0.192000000     0.382000000    -2.471000000
C    -0.898000000     1.164000000    -0.612000000
C    -1.816000000     2.241000000    -1.214000000
O    -2.265000000     3.141000000    -0.548000000
O    -2.093000000     2.159000000    -2.410000000
