14
-73.31578
C     0.328000000     0.560000000     1.310000000
H     0.655000000     0.920000000     2.282000000
C     0.542000000    -0.790000000     0.982000000
H     0.974000000    -1.453000000     1.726000000
C     0.120000000    -1.191000000    -0.274000000
H     0.216000000    -2.227000000    -0.519000000
C    -0.542000000    -0.308000000    -1.142000000
H    -0.800000000    -0.740000000    -2.105000000
C    -0.698000000     1.028000000    -0.786000000
H    -1.347000000     1.689000000    -1.355000000
C    -0.181000000     1.500000000     0.410000000
C    -0.392000000     2.931000000     0.812000000
O     0.174000000     3.380000000     1.715000000
O    -0.879000000     3.681000000     0.029000000
