14
-89.31697
C     1.428000000     0.325000000    -0.131000000
H     2.507000000     0.417000000    -0.225000000
C     0.887000000    -0.631000000     0.694000000
H     1.496000000    -1.304000000     1.292000000
C    -0.471000000    -0.768000000     0.769000000
H    -0.882000000    -1.453000000     1.556000000
C    -1.347000000     0.021000000     0.044000000
H    -2.412000000    -0.180000000     0.131000000
C    -0.811000000     0.946000000    -0.813000000
H    -1.441000000     1.564000000    -1.448000000
C     0.613000000     1.091000000    -0.955000000
C     1.160000000     2.020000000    -1.960000000
O     2.292000000     2.465000000    -1.729000000
O     0.633000000     2.262000000    -3.033000000
