14
-84.89898
C     0.658000000     1.309000000    -0.114000000
H     1.050000000     2.323000000    -0.106000000
C    -0.640000000     1.076000000     0.207000000
H    -1.316000000     1.921000000     0.305000000
C    -1.176000000    -0.189000000     0.383000000
H    -2.212000000    -0.372000000     0.593000000
C    -0.400000000    -1.254000000     0.050000000
H    -0.827000000    -2.253000000     0.050000000
C     0.942000000    -1.038000000    -0.315000000
H     1.557000000    -1.876000000    -0.633000000
C     1.495000000     0.258000000    -0.368000000
C     2.926000000     0.494000000    -0.906000000
O     3.431000000     1.586000000    -1.111000000
O     3.612000000    -0.467000000    -1.298000000
