14
-90.23130
C     1.128000000     0.624000000    -0.524000000
H     2.056000000     1.108000000    -0.817000000
C     1.135000000    -0.096000000     0.650000000
H     2.051000000    -0.261000000     1.212000000
C    -0.034000000    -0.698000000     0.963000000
H    -0.045000000    -1.382000000     1.777000000
C    -1.228000000    -0.455000000     0.245000000
H    -2.126000000    -1.027000000     0.460000000
C    -1.240000000     0.404000000    -0.855000000
H    -2.162000000     0.548000000    -1.412000000
C    -0.035000000     1.005000000    -1.246000000
C     0.136000000     1.920000000    -2.480000000
O     1.321000000     2.152000000    -2.800000000
O    -0.812000000     2.320000000    -3.097000000
