14
-88.55932
C     1.375000000    -0.484000000    -0.325000000
H     2.445000000    -0.673000000    -0.287000000
C     0.529000000    -0.948000000     0.687000000
H     0.953000000    -1.614000000     1.434000000
C    -0.772000000    -0.486000000     0.803000000
H    -1.480000000    -0.897000000     1.548000000
C    -1.311000000     0.412000000    -0.084000000
H    -2.310000000     0.833000000    -0.009000000
C    -0.422000000     0.906000000    -1.090000000
H    -0.711000000     1.775000000    -1.675000000
C     0.911000000     0.471000000    -1.185000000
C     1.846000000     1.111000000    -2.128000000
O     3.060000000     1.013000000    -1.981000000
O     1.334000000     1.717000000    -3.040000000
