14
-89.63671
C     0.898000000     1.215000000     0.035000000
H     1.558000000     2.078000000     0.040000000
C     1.058000000     0.098000000     0.862000000
H     1.804000000     0.041000000     1.650000000
C     0.161000000    -0.946000000     0.725000000
H     0.176000000    -1.783000000     1.380000000
C    -0.902000000    -0.896000000    -0.192000000
H    -1.641000000    -1.691000000    -0.242000000
C    -1.049000000     0.209000000    -1.061000000
H    -1.788000000     0.275000000    -1.855000000
C    -0.117000000     1.228000000    -0.921000000
C    -0.233000000     2.352000000    -1.928000000
O     0.708000000     3.076000000    -2.019000000
O    -1.286000000     2.619000000    -2.517000000
