14
-82.43770
C     0.524000000     1.010000000     0.943000000
H     0.850000000     1.737000000     1.683000000
C    -0.703000000     0.352000000     1.025000000
H    -1.381000000     0.514000000     1.859000000
C    -1.111000000    -0.506000000     0.047000000
H    -2.186000000    -0.996000000     0.120000000
C    -0.223000000    -0.961000000    -0.875000000
H    -0.467000000    -1.843000000    -1.462000000
C     1.043000000    -0.326000000    -1.008000000
H     1.816000000    -0.758000000    -1.638000000
C     1.347000000     0.760000000    -0.143000000
C     2.717000000     1.543000000    -0.361000000
O     2.852000000     2.771000000    -0.071000000
O     3.724000000     0.944000000    -0.669000000
