14
-82.46701
C     0.838000000     0.771000000     0.927000000
H     1.349000000     1.377000000     1.671000000
C    -0.546000000     0.656000000     1.095000000
H    -1.125000000     1.165000000     1.862000000
C    -1.169000000    -0.117000000     0.103000000
H    -2.213000000    -0.254000000     0.157000000
C    -0.517000000    -0.763000000    -0.921000000
H    -1.109000000    -1.234000000    -1.701000000
C     0.867000000    -0.614000000    -1.038000000
H     1.448000000    -0.953000000    -1.892000000
C     1.548000000     0.152000000    -0.088000000
C     3.033000000     0.285000000    -0.210000000
O     3.736000000     0.358000000     0.727000000
O     3.553000000     0.481000000    -1.313000000
