14
-80.21869
C     1.403000000    -0.416000000     0.136000000
H     2.394000000    -0.865000000     0.136000000
C     0.375000000    -1.061000000    -0.609000000
H     0.610000000    -1.998000000    -1.109000000
C    -0.931000000    -0.572000000    -0.604000000
H    -1.777000000    -1.036000000    -1.134000000
C    -1.178000000     0.607000000     0.032000000
H    -2.169000000     1.054000000     0.030000000
C    -0.175000000     1.289000000     0.659000000
H    -0.437000000     2.186000000     1.216000000
C     1.131000000     0.783000000     0.827000000
C     2.229000000     1.510000000     1.522000000
O     3.243000000     1.011000000     1.826000000
O     2.071000000     2.673000000     1.848000000
