14
-85.48159
C     1.142000000    -0.455000000     0.780000000
H     1.983000000    -0.901000000     1.303000000
C     0.021000000    -1.182000000     0.551000000
H    -0.063000000    -2.190000000     0.950000000
C    -1.060000000    -0.568000000    -0.109000000
H    -2.038000000    -1.118000000    -0.293000000
C    -0.959000000     0.663000000    -0.691000000
H    -1.708000000     1.104000000    -1.344000000
C     0.236000000     1.349000000    -0.502000000
H     0.389000000     2.354000000    -0.888000000
C     1.343000000     0.812000000     0.237000000
C     2.642000000     1.570000000     0.296000000
O     3.551000000     1.097000000     0.918000000
O     2.821000000     2.631000000    -0.274000000
