14
-89.07752
C     0.841000000    -0.071000000     1.283000000
H     1.476000000    -0.254000000     2.145000000
C    -0.052000000    -1.019000000     0.829000000
H    -0.151000000    -1.920000000     1.431000000
C    -0.837000000    -0.818000000    -0.279000000
H    -1.637000000    -1.556000000    -0.533000000
C    -0.685000000     0.326000000    -1.106000000
H    -1.353000000     0.461000000    -1.953000000
C     0.318000000     1.245000000    -0.750000000
H     0.466000000     2.120000000    -1.378000000
C     1.072000000     1.003000000     0.398000000
C     2.090000000     2.098000000     0.744000000
O     2.931000000     1.966000000     1.632000000
O     2.118000000     3.103000000     0.072000000
