14
-85.26566
C     0.301000000    -1.372000000    -0.533000000
H     0.543000000    -2.405000000    -0.773000000
C    -0.467000000    -1.108000000     0.591000000
H    -0.824000000    -1.802000000     1.347000000
C    -0.792000000     0.195000000     0.974000000
H    -1.531000000     0.389000000     1.789000000
C    -0.267000000     1.243000000     0.209000000
H    -0.380000000     2.249000000     0.605000000
C     0.539000000     1.056000000    -0.941000000
H     0.892000000     1.849000000    -1.596000000
C     0.857000000    -0.271000000    -1.293000000
C     1.715000000    -0.498000000    -2.510000000
O     2.214000000     0.416000000    -3.116000000
O     2.062000000    -1.658000000    -2.869000000
