14
-83.36908
C     1.421000000     0.216000000    -0.113000000
H     2.471000000     0.208000000    -0.395000000
C     0.666000000    -0.575000000    -0.935000000
H     1.195000000    -1.085000000    -1.737000000
C    -0.714000000    -0.724000000    -0.702000000
H    -1.334000000    -1.307000000    -1.425000000
C    -1.306000000    -0.049000000     0.351000000
H    -2.371000000    -0.170000000     0.535000000
C    -0.515000000     0.664000000     1.211000000
H    -0.995000000     1.073000000     2.096000000
C     0.879000000     0.854000000     1.018000000
C     1.777000000     1.750000000     1.789000000
O     2.946000000     1.713000000     1.644000000
O     1.265000000     2.330000000     2.747000000
