14
-86.30006
C     1.277000000     0.055000000     0.574000000
H     2.185000000    -0.068000000     1.160000000
C     0.705000000    -1.095000000     0.130000000
H     1.144000000    -2.085000000     0.219000000
C    -0.506000000    -1.019000000    -0.446000000
H    -0.943000000    -1.845000000    -0.917000000
C    -1.158000000     0.246000000    -0.567000000
H    -2.153000000     0.183000000    -1.002000000
C    -0.594000000     1.439000000    -0.087000000
H    -1.074000000     2.409000000    -0.191000000
C     0.695000000     1.317000000     0.498000000
C     1.452000000     2.521000000     1.097000000
O     2.421000000     2.376000000     1.817000000
O     1.106000000     3.609000000     0.715000000
