14
-85.64642
C    -0.321000000     0.119000000     1.368000000
H    -0.521000000     0.229000000     2.430000000
C     0.009000000    -1.078000000     0.737000000
H    -0.053000000    -2.017000000     1.281000000
C     0.284000000    -1.045000000    -0.594000000
H     0.447000000    -2.026000000    -1.060000000
C     0.147000000     0.091000000    -1.344000000
H     0.104000000    -0.052000000    -2.420000000
C    -0.110000000     1.319000000    -0.745000000
H    -0.249000000     2.190000000    -1.380000000
C    -0.411000000     1.350000000     0.647000000
C    -0.550000000     2.658000000     1.364000000
O    -0.836000000     2.646000000     2.561000000
O    -0.414000000     3.765000000     0.844000000
