14
-84.59317
C    -0.581000000     0.944000000     1.002000000
H    -0.985000000     1.545000000     1.813000000
C    -0.122000000    -0.298000000     1.267000000
H    -0.261000000    -0.827000000     2.207000000
C     0.429000000    -1.135000000     0.245000000
H     0.879000000    -2.122000000     0.627000000
C     0.533000000    -0.628000000    -1.059000000
H     1.088000000    -1.146000000    -1.836000000
C     0.059000000     0.641000000    -1.349000000
H    -0.058000000     0.992000000    -2.371000000
C    -0.540000000     1.453000000    -0.355000000
C    -0.937000000     2.877000000    -0.734000000
O    -1.292000000     3.645000000     0.150000000
O    -1.238000000     3.071000000    -1.903000000
