14
-78.42355
C     0.095000000     0.946000000     1.159000000
H     0.145000000     1.480000000     2.105000000
C     0.271000000    -0.411000000     1.195000000
H     0.514000000    -0.962000000     2.099000000
C     0.096000000    -1.177000000     0.044000000
H     0.191000000    -2.241000000     0.066000000
C    -0.167000000    -0.578000000    -1.158000000
H    -0.088000000    -1.190000000    -2.053000000
C    -0.244000000     0.861000000    -1.183000000
H    -0.216000000     1.319000000    -2.169000000
C    -0.281000000     1.587000000    -0.008000000
C    -0.470000000     3.046000000    -0.103000000
O    -0.453000000     3.666000000     0.895000000
O    -0.697000000     3.607000000    -1.144000000
