14
-81.15314
C    -1.170000000     0.765000000     0.393000000
H    -2.105000000     1.154000000     0.787000000
C    -1.187000000    -0.542000000    -0.023000000
H    -2.169000000    -1.005000000    -0.070000000
C    -0.013000000    -1.170000000    -0.429000000
H    -0.080000000    -2.224000000    -0.784000000
C     1.216000000    -0.420000000    -0.475000000
H     2.048000000    -0.960000000    -0.920000000
C     1.179000000     0.925000000    -0.093000000
H     2.087000000     1.488000000     0.109000000
C     0.039000000     1.525000000     0.448000000
C     0.147000000     2.848000000     1.174000000
O    -0.822000000     3.391000000     1.642000000
O     1.203000000     3.410000000     1.360000000
