14
-84.38724
C     0.818000000    -1.206000000    -0.052000000
H     1.489000000    -2.044000000     0.120000000
C     0.357000000    -0.646000000     1.116000000
H     0.557000000    -1.120000000     2.073000000
C    -0.439000000     0.515000000     1.045000000
H    -0.825000000     0.976000000     1.933000000
C    -0.727000000     1.090000000    -0.209000000
H    -1.324000000     1.994000000    -0.298000000
C    -0.302000000     0.457000000    -1.335000000
H    -0.666000000     0.890000000    -2.263000000
C     0.425000000    -0.734000000    -1.293000000
C     0.869000000    -1.359000000    -2.645000000
O     0.753000000    -0.724000000    -3.668000000
O     1.451000000    -2.401000000    -2.709000000
