14
-85.83307
C    -1.409000000     0.331000000    -0.396000000
H    -2.479000000     0.220000000    -0.554000000
C    -0.666000000    -0.778000000    -0.795000000
H    -1.074000000    -1.585000000    -1.398000000
C     0.694000000    -0.951000000    -0.399000000
H     1.281000000    -1.879000000    -0.629000000
C     1.207000000     0.007000000     0.506000000
H     2.234000000    -0.106000000     0.844000000
C     0.522000000     1.155000000     0.882000000
H     0.898000000     1.958000000     1.511000000
C    -0.822000000     1.265000000     0.481000000
C    -1.672000000     2.361000000     0.942000000
O    -2.777000000     2.522000000     0.414000000
O    -1.208000000     3.088000000     1.769000000
