14
-81.72818
C    -0.422000000    -0.507000000     1.309000000
H    -0.738000000    -1.036000000     2.204000000
C    -0.480000000    -1.175000000     0.043000000
H    -0.791000000    -2.216000000    -0.013000000
C    -0.246000000    -0.504000000    -1.168000000
H    -0.379000000    -1.011000000    -2.086000000
C     0.296000000     0.788000000    -1.070000000
H     0.750000000     1.211000000    -1.963000000
C     0.449000000     1.397000000     0.258000000
H     1.083000000     2.279000000     0.287000000
C     0.057000000     0.745000000     1.429000000
C     0.324000000     1.394000000     2.753000000
O     0.228000000     0.740000000     3.768000000
O     0.497000000     2.588000000     2.837000000
