14
-83.92237
C     0.704000000    -0.479000000     1.166000000
H     1.201000000    -0.983000000     1.991000000
C     0.127000000    -1.298000000     0.198000000
H     0.216000000    -2.380000000     0.258000000
C    -0.512000000    -0.697000000    -0.882000000
H    -0.853000000    -1.346000000    -1.714000000
C    -0.586000000     0.676000000    -1.005000000
H    -1.074000000     1.106000000    -1.876000000
C     0.079000000     1.460000000    -0.040000000
H     0.059000000     2.547000000    -0.065000000
C     0.696000000     0.863000000     1.084000000
C     1.339000000     1.768000000     2.101000000
O     2.143000000     1.323000000     2.891000000
O     1.290000000     2.966000000     2.023000000
