14
-89.40880
C     0.003000000    -0.163000000     1.508000000
H     0.148000000    -0.433000000     2.551000000
C     0.245000000    -1.171000000     0.555000000
H     0.584000000    -2.137000000     0.919000000
C     0.148000000    -0.884000000    -0.810000000
H     0.467000000    -1.637000000    -1.497000000
C    -0.256000000     0.352000000    -1.267000000
H    -0.482000000     0.554000000    -2.310000000
C    -0.506000000     1.368000000    -0.257000000
H    -0.902000000     2.339000000    -0.545000000
C    -0.314000000     1.114000000     1.089000000
C    -0.372000000     2.271000000     2.086000000
O    -0.209000000     2.019000000     3.252000000
O    -0.472000000     3.428000000     1.723000000
