14
-91.64554
C     0.654000000    -0.328000000     1.290000000
H     1.237000000    -0.579000000     2.172000000
C     0.272000000    -1.242000000     0.297000000
H     0.467000000    -2.302000000     0.436000000
C    -0.304000000    -0.811000000    -0.925000000
H    -0.541000000    -1.484000000    -1.699000000
C    -0.570000000     0.577000000    -1.112000000
H    -1.014000000     1.050000000    -1.985000000
C    -0.272000000     1.449000000    -0.032000000
H    -0.517000000     2.502000000    -0.139000000
C     0.333000000     1.030000000     1.198000000
C     0.845000000     2.084000000     2.170000000
O     1.562000000     1.755000000     3.134000000
O     0.467000000     3.280000000     2.070000000
