14
-86.59372
C     0.970000000     0.116000000     1.072000000
H     1.691000000     0.159000000     1.884000000
C     0.117000000    -0.982000000     0.907000000
H     0.087000000    -1.763000000     1.662000000
C    -0.706000000    -1.024000000    -0.221000000
H    -1.592000000    -1.721000000    -0.228000000
C    -0.674000000     0.018000000    -1.164000000
H    -1.434000000     0.079000000    -1.938000000
C     0.202000000     1.115000000    -0.906000000
H     0.126000000     2.020000000    -1.504000000
C     1.001000000     1.197000000     0.235000000
C     1.901000000     2.397000000     0.483000000
O     2.416000000     2.559000000     1.570000000
O     2.121000000     3.182000000    -0.405000000
