14
-89.98287
C     0.896000000    -0.132000000     1.212000000
H     1.540000000    -0.404000000     2.045000000
C     0.721000000    -1.144000000     0.225000000
H     1.198000000    -2.120000000     0.250000000
C    -0.158000000    -0.905000000    -0.845000000
H    -0.383000000    -1.676000000    -1.529000000
C    -0.665000000     0.400000000    -1.053000000
H    -1.296000000     0.550000000    -1.925000000
C    -0.461000000     1.413000000    -0.155000000
H    -0.951000000     2.356000000    -0.382000000
C     0.339000000     1.206000000     0.984000000
C     0.626000000     2.282000000     2.040000000
O     1.256000000     1.913000000     3.012000000
O     0.152000000     3.391000000     1.886000000
