14
-85.42766
C     0.182000000    -0.405000000     1.294000000
H     0.333000000    -0.743000000     2.316000000
C     0.304000000    -1.281000000     0.224000000
H     0.747000000    -2.262000000     0.376000000
C     0.082000000    -0.694000000    -1.033000000
H     0.338000000    -1.279000000    -1.875000000
C    -0.326000000     0.633000000    -1.143000000
H    -0.548000000     1.171000000    -2.061000000
C    -0.568000000     1.399000000    -0.031000000
H    -0.852000000     2.448000000    -0.025000000
C    -0.244000000     0.878000000     1.242000000
C    -0.409000000     1.666000000     2.538000000
O    -0.584000000     1.120000000     3.615000000
O    -0.161000000     2.843000000     2.457000000
