14
-86.24000
C    -0.357000000    -0.811000000     1.174000000
H    -0.657000000    -1.464000000     1.989000000
C    -0.788000000    -1.061000000    -0.108000000
H    -1.422000000    -1.935000000    -0.229000000
C    -0.329000000    -0.326000000    -1.191000000
H    -0.611000000    -0.642000000    -2.161000000
C     0.404000000     0.838000000    -0.930000000
H     0.763000000     1.431000000    -1.767000000
C     0.737000000     1.238000000     0.381000000
H     1.204000000     2.149000000     0.748000000
C     0.310000000     0.414000000     1.453000000
C     0.740000000     0.794000000     2.864000000
O     0.499000000     0.083000000     3.797000000
O     1.343000000     1.837000000     3.096000000
