14
-82.46352
C    -1.351000000    -0.266000000     0.520000000
H    -2.412000000    -0.257000000     0.755000000
C    -0.822000000    -0.833000000    -0.623000000
H    -1.508000000    -1.387000000    -1.260000000
C     0.495000000    -0.508000000    -0.994000000
H     0.942000000    -1.046000000    -1.827000000
C     1.304000000     0.332000000    -0.257000000
H     2.306000000     0.538000000    -0.623000000
C     0.775000000     0.844000000     0.943000000
H     1.398000000     1.451000000     1.595000000
C    -0.574000000     0.567000000     1.324000000
C    -1.122000000     1.288000000     2.525000000
O    -2.141000000     0.952000000     3.017000000
O    -0.583000000     2.272000000     3.048000000
