14
-89.24971
C    -1.110000000    -0.773000000     0.650000000
H    -1.770000000    -1.449000000     1.188000000
C    -0.318000000    -1.271000000    -0.346000000
H    -0.431000000    -2.307000000    -0.653000000
C     0.686000000    -0.444000000    -0.909000000
H     1.264000000    -0.797000000    -1.742000000
C     0.758000000     0.900000000    -0.632000000
H     1.495000000     1.496000000    -1.164000000
C    -0.025000000     1.379000000     0.435000000
H     0.083000000     2.385000000     0.831000000
C    -0.877000000     0.494000000     1.149000000
C    -1.656000000     1.103000000     2.354000000
O    -2.753000000     0.602000000     2.676000000
O    -1.335000000     2.253000000     2.782000000
