14
-84.02384
C    -0.458000000    -0.378000000     1.343000000
H    -0.883000000    -0.791000000     2.254000000
C    -0.576000000    -1.108000000     0.195000000
H    -1.043000000    -2.088000000     0.247000000
C    -0.128000000    -0.601000000    -1.035000000
H    -0.268000000    -1.069000000    -1.988000000
C     0.445000000     0.626000000    -1.106000000
H     0.802000000     1.090000000    -2.022000000
C     0.487000000     1.383000000     0.052000000
H     0.797000000     2.425000000     0.034000000
C     0.146000000     0.856000000     1.292000000
C     0.448000000     1.445000000     2.642000000
O     0.736000000     0.800000000     3.638000000
O     0.543000000     2.671000000     2.732000000
