14
-86.51292
C    -1.403000000     0.449000000     0.297000000
H    -2.477000000     0.552000000     0.425000000
C    -0.932000000    -0.140000000    -0.847000000
H    -1.635000000    -0.249000000    -1.669000000
C     0.393000000    -0.544000000    -0.994000000
H     0.658000000    -1.026000000    -1.910000000
C     1.276000000    -0.347000000     0.041000000
H     2.331000000    -0.594000000    -0.043000000
C     0.852000000     0.457000000     1.144000000
H     1.585000000     0.705000000     1.908000000
C    -0.472000000     0.691000000     1.313000000
C    -0.929000000     1.311000000     2.593000000
O    -2.074000000     1.194000000     2.880000000
O    -0.156000000     2.043000000     3.264000000
