14
-76.50841
C    -1.458000000     0.121000000     0.018000000
H    -2.523000000     0.339000000     0.012000000
C    -0.740000000    -0.581000000    -0.938000000
H    -1.172000000    -1.164000000    -1.747000000
C     0.658000000    -0.568000000    -0.925000000
H     1.254000000    -1.113000000    -1.641000000
C     1.309000000     0.238000000     0.059000000
H     2.393000000     0.228000000     0.144000000
C     0.561000000     0.848000000     1.062000000
H     1.099000000     1.348000000     1.863000000
C    -0.860000000     0.771000000     1.092000000
C    -1.656000000     1.407000000     2.203000000
O    -2.817000000     1.344000000     2.300000000
O    -1.103000000     2.123000000     2.996000000
