14
-81.90206
C    -1.490000000    -0.221000000    -0.114000000
H    -2.551000000    -0.230000000    -0.347000000
C    -0.604000000    -0.190000000    -1.160000000
H    -0.960000000    -0.215000000    -2.187000000
C     0.745000000    -0.137000000    -0.916000000
H     1.388000000    -0.075000000    -1.845000000
C     1.245000000     0.078000000     0.331000000
H     2.326000000     0.090000000     0.444000000
C     0.357000000     0.129000000     1.353000000
H     0.739000000     0.342000000     2.348000000
C    -1.063000000     0.014000000     1.196000000
C    -2.013000000     0.039000000     2.467000000
O    -3.082000000     0.589000000     2.424000000
O    -1.562000000    -0.310000000     3.528000000
