14
-88.53427
C    -1.086000000     0.219000000     0.988000000
H    -1.884000000     0.662000000     1.579000000
C    -1.288000000     0.068000000    -0.405000000
H    -2.286000000     0.178000000    -0.822000000
C    -0.176000000    -0.158000000    -1.197000000
H    -0.156000000    -0.172000000    -2.350000000
C     1.073000000    -0.339000000    -0.627000000
H     1.895000000    -0.588000000    -1.293000000
C     1.281000000    -0.176000000     0.723000000
H     2.258000000    -0.468000000     1.100000000
C     0.210000000     0.203000000     1.511000000
C     0.446000000     0.518000000     2.978000000
O    -0.474000000     0.327000000     3.773000000
O     1.595000000     0.913000000     3.395000000
