14
-88.04428
C    -1.314000000     0.223000000     0.602000000
H    -2.334000000     0.292000000     0.970000000
C    -1.032000000     0.080000000    -0.772000000
H    -1.854000000    -0.044000000    -1.472000000
C     0.246000000     0.028000000    -1.249000000
H     0.374000000     0.059000000    -2.325000000
C     1.288000000    -0.128000000    -0.275000000
H     2.312000000    -0.172000000    -0.638000000
C     0.970000000    -0.044000000     1.132000000
H     1.754000000    -0.121000000     1.881000000
C    -0.312000000     0.116000000     1.560000000
C    -0.682000000     0.108000000     3.053000000
O    -1.871000000     0.315000000     3.342000000
O     0.130000000     0.033000000     3.968000000
