14
-83.93155
C    -1.069000000     0.651000000     0.704000000
H    -1.888000000     1.039000000     1.303000000
C    -1.229000000    -0.279000000    -0.270000000
H    -2.197000000    -0.643000000    -0.603000000
C    -0.143000000    -0.853000000    -0.853000000
H    -0.213000000    -1.563000000    -1.667000000
C     1.123000000    -0.345000000    -0.583000000
H     1.988000000    -0.738000000    -1.112000000
C     1.292000000     0.620000000     0.375000000
H     2.309000000     0.995000000     0.459000000
C     0.198000000     1.053000000     1.115000000
C     0.265000000     2.105000000     2.194000000
O    -0.605000000     2.329000000     2.991000000
O     1.280000000     2.797000000     2.267000000
