14
-81.41272
C    -1.468000000     0.288000000     0.383000000
H    -2.487000000     0.642000000     0.520000000
C    -0.903000000     0.262000000    -0.965000000
H    -1.463000000     0.526000000    -1.859000000
C     0.435000000    -0.038000000    -1.191000000
H     0.912000000     0.065000000    -2.213000000
C     1.237000000    -0.449000000    -0.089000000
H     2.287000000    -0.707000000    -0.205000000
C     0.678000000    -0.393000000     1.205000000
H     1.360000000    -0.568000000     2.033000000
C    -0.658000000    -0.072000000     1.497000000
C    -1.241000000    -0.020000000     2.899000000
O    -2.370000000     0.479000000     2.961000000
O    -0.562000000    -0.118000000     3.841000000
