14
-90.29280
C    -1.170000000     0.698000000     0.550000000
H    -2.137000000     1.078000000     0.868000000
C    -0.882000000     0.519000000    -0.780000000
H    -1.607000000     0.898000000    -1.496000000
C     0.305000000    -0.096000000    -1.239000000
H     0.474000000    -0.069000000    -2.309000000
C     1.195000000    -0.569000000    -0.240000000
H     2.065000000    -1.107000000    -0.606000000
C     0.853000000    -0.384000000     1.143000000
H     1.472000000    -0.857000000     1.902000000
C    -0.318000000     0.246000000     1.544000000
C    -0.706000000     0.365000000     2.971000000
O    -1.882000000     0.632000000     3.225000000
O     0.086000000     0.158000000     3.876000000
