14
-84.43697
C    -1.139000000    -0.205000000     0.965000000
H    -1.971000000    -0.545000000     1.576000000
C    -0.594000000    -1.175000000     0.094000000
H    -1.011000000    -2.175000000     0.175000000
C     0.389000000    -0.821000000    -0.809000000
H     0.626000000    -1.510000000    -1.597000000
C     0.908000000     0.450000000    -0.877000000
H     1.653000000     0.663000000    -1.639000000
C     0.416000000     1.445000000     0.007000000
H     0.895000000     2.418000000     0.071000000
C    -0.586000000     1.120000000     0.948000000
C    -0.978000000     2.140000000     1.991000000
O    -1.832000000     1.905000000     2.785000000
O    -0.370000000     3.183000000     2.099000000
