14
-82.95083
C     1.288000000     0.223000000     0.685000000
H     2.187000000     0.351000000     1.283000000
C     0.073000000     0.840000000     1.059000000
H     0.082000000     1.522000000     1.906000000
C    -1.092000000     0.530000000     0.383000000
H    -1.978000000     1.080000000     0.603000000
C    -0.965000000    -0.471000000    -0.682000000
H    -1.841000000    -0.796000000    -1.237000000
C     0.266000000    -1.097000000    -1.038000000
H     0.308000000    -1.831000000    -1.839000000
C     1.435000000    -0.653000000    -0.415000000
C     2.756000000    -1.151000000    -0.856000000
O     2.824000000    -2.052000000    -1.630000000
O     3.687000000    -0.439000000    -0.569000000
