14
-90.89865
C    -0.546000000    -0.371000000     1.325000000
H    -0.833000000    -0.773000000     2.293000000
C    -0.021000000    -1.305000000     0.393000000
H     0.260000000    -2.334000000     0.601000000
C     0.375000000    -0.816000000    -0.862000000
H     0.757000000    -1.536000000    -1.629000000
C     0.289000000     0.582000000    -1.133000000
H     0.690000000     0.907000000    -2.090000000
C    -0.259000000     1.465000000    -0.232000000
H    -0.298000000     2.499000000    -0.565000000
C    -0.701000000     0.994000000     1.005000000
C    -1.280000000     1.853000000     2.118000000
O    -1.542000000     1.446000000     3.248000000
O    -1.477000000     2.998000000     1.743000000
