14
-91.02140
C     0.792000000     0.674000000     1.135000000
H     1.358000000     1.154000000     1.929000000
C     1.404000000    -0.139000000     0.101000000
H     2.413000000    -0.540000000     0.142000000
C     0.579000000    -0.626000000    -0.920000000
H     1.051000000    -1.079000000    -1.780000000
C    -0.809000000    -0.354000000    -0.965000000
H    -1.419000000    -0.774000000    -1.761000000
C    -1.323000000     0.355000000     0.104000000
H    -2.386000000     0.577000000     0.048000000
C    -0.566000000     0.916000000     1.133000000
C    -1.309000000     1.693000000     2.249000000
O    -0.637000000     2.495000000     2.931000000
O    -2.518000000     1.635000000     2.294000000
