14
-89.95439
C    -0.225000000     0.530000000     1.371000000
H    -0.538000000     0.644000000     2.405000000
C     0.249000000    -0.737000000     1.107000000
H     0.235000000    -1.512000000     1.869000000
C     0.452000000    -1.112000000    -0.226000000
H     0.746000000    -2.164000000    -0.541000000
C     0.204000000    -0.229000000    -1.250000000
H     0.219000000    -0.604000000    -2.270000000
C    -0.209000000     1.116000000    -0.966000000
H    -0.495000000     1.804000000    -1.758000000
C    -0.496000000     1.463000000     0.342000000
C    -1.005000000     2.843000000     0.697000000
O    -1.233000000     3.091000000     1.888000000
O    -1.219000000     3.675000000    -0.174000000
