14
-82.47275
C     0.646000000    -1.196000000     0.535000000
H     1.152000000    -2.065000000     0.947000000
C     1.111000000     0.111000000     0.708000000
H     2.062000000     0.384000000     1.159000000
C     0.415000000     1.128000000     0.097000000
H     0.809000000     2.190000000     0.128000000
C    -0.726000000     0.940000000    -0.554000000
H    -1.288000000     1.830000000    -0.825000000
C    -1.232000000    -0.332000000    -0.644000000
H    -2.243000000    -0.438000000    -1.030000000
C    -0.554000000    -1.396000000    -0.163000000
C    -1.119000000    -2.853000000    -0.360000000
O    -2.087000000    -3.151000000    -1.079000000
O    -0.562000000    -3.805000000     0.200000000
