14
-85.64280
C     0.773000000     1.125000000     0.482000000
H     1.493000000     1.878000000     0.791000000
C     1.276000000    -0.070000000     0.056000000
H     2.328000000    -0.318000000     0.174000000
C     0.419000000    -1.046000000    -0.380000000
H     0.787000000    -1.942000000    -0.890000000
C    -0.966000000    -0.899000000    -0.346000000
H    -1.544000000    -1.717000000    -0.770000000
C    -1.478000000     0.377000000    -0.003000000
H    -2.553000000     0.531000000    -0.048000000
C    -0.589000000     1.371000000     0.528000000
C    -1.208000000     2.652000000     0.989000000
O    -0.509000000     3.550000000     1.480000000
O    -2.343000000     2.928000000     0.663000000
