14
-83.87987
C     0.146000000     1.018000000     1.005000000
H     0.117000000     1.674000000     1.871000000
C     0.651000000    -0.255000000     1.103000000
H     1.098000000    -0.599000000     2.032000000
C     0.555000000    -1.078000000    -0.014000000
H     1.064000000    -2.066000000    -0.036000000
C    -0.093000000    -0.772000000    -1.167000000
H    -0.187000000    -1.504000000    -1.964000000
C    -0.742000000     0.487000000    -1.166000000
H    -1.364000000     0.777000000    -2.009000000
C    -0.626000000     1.422000000    -0.142000000
C    -1.144000000     2.852000000    -0.109000000
O    -0.977000000     3.560000000     0.897000000
O    -1.621000000     3.342000000    -1.068000000
