14
-85.69830
C    -0.583000000     1.216000000     0.565000000
H    -0.854000000     2.127000000     1.094000000
C    -0.288000000     0.062000000     1.302000000
H    -0.487000000     0.076000000     2.370000000
C     0.258000000    -1.050000000     0.693000000
H     0.550000000    -1.996000000     1.163000000
C     0.539000000    -0.924000000    -0.709000000
H     0.910000000    -1.809000000    -1.220000000
C     0.284000000     0.292000000    -1.416000000
H     0.369000000     0.301000000    -2.500000000
C    -0.296000000     1.350000000    -0.794000000
C    -0.568000000     2.645000000    -1.584000000
O    -0.584000000     3.703000000    -1.036000000
O    -0.638000000     2.634000000    -2.821000000
