14
-88.44996
C     0.133000000     1.463000000     0.203000000
H     0.341000000     2.521000000     0.338000000
C     1.001000000     0.516000000     0.786000000
H     1.801000000     0.781000000     1.473000000
C     0.746000000    -0.834000000     0.517000000
H     1.352000000    -1.590000000     0.906000000
C    -0.345000000    -1.218000000    -0.259000000
H    -0.388000000    -2.304000000    -0.258000000
C    -1.159000000    -0.267000000    -0.840000000
H    -1.979000000    -0.605000000    -1.469000000
C    -0.898000000     1.112000000    -0.695000000
C    -1.782000000     2.106000000    -1.348000000
O    -1.530000000     3.309000000    -1.283000000
O    -2.713000000     1.754000000    -2.084000000
