14
-90.93822
C    -0.295000000     1.219000000     0.726000000
H    -0.418000000     2.106000000     1.342000000
C     0.398000000     0.120000000     1.238000000
H     0.886000000     0.154000000     2.209000000
C     0.567000000    -1.012000000     0.501000000
H     1.301000000    -1.721000000     0.929000000
C     0.018000000    -1.080000000    -0.793000000
H     0.096000000    -1.950000000    -1.440000000
C    -0.655000000     0.017000000    -1.312000000
H    -0.986000000    -0.062000000    -2.344000000
C    -0.883000000     1.212000000    -0.561000000
C    -1.595000000     2.399000000    -1.189000000
O    -1.848000000     3.377000000    -0.549000000
O    -1.899000000     2.275000000    -2.399000000
