14
-78.10976
C     0.029000000     1.307000000     0.576000000
H     0.148000000     2.261000000     1.084000000
C     0.336000000     0.166000000     1.293000000
H     0.665000000     0.245000000     2.326000000
C     0.295000000    -0.989000000     0.571000000
H     0.533000000    -1.863000000     1.138000000
C    -0.112000000    -1.127000000    -0.732000000
H    -0.164000000    -2.070000000    -1.270000000
C    -0.490000000     0.007000000    -1.410000000
H    -0.837000000    -0.111000000    -2.433000000
C    -0.438000000     1.287000000    -0.748000000
C    -0.732000000     2.603000000    -1.491000000
O    -0.678000000     3.662000000    -0.860000000
O    -1.339000000     2.680000000    -2.518000000
