14
-90.24869
C     0.793000000     0.780000000     0.987000000
H     1.411000000     1.229000000     1.761000000
C     0.921000000    -0.526000000     0.667000000
H     1.679000000    -1.046000000     1.247000000
C     0.130000000    -1.190000000    -0.265000000
H     0.299000000    -2.218000000    -0.511000000
C    -0.900000000    -0.522000000    -0.921000000
H    -1.462000000    -1.032000000    -1.699000000
C    -1.095000000     0.857000000    -0.593000000
H    -1.905000000     1.357000000    -1.116000000
C    -0.162000000     1.518000000     0.283000000
C    -0.354000000     3.019000000     0.540000000
O     0.309000000     3.546000000     1.426000000
O    -1.148000000     3.685000000    -0.132000000
