14
-88.13490
C     0.219000000     1.146000000     0.904000000
H     0.229000000     1.860000000     1.724000000
C     0.242000000    -0.186000000     1.259000000
H     0.387000000    -0.460000000     2.301000000
C     0.150000000    -1.197000000     0.343000000
H     0.110000000    -2.151000000     0.677000000
C     0.030000000    -0.876000000    -1.038000000
H    -0.111000000    -1.630000000    -1.808000000
C    -0.092000000     0.479000000    -1.367000000
H    -0.364000000     0.783000000    -2.375000000
C    -0.010000000     1.556000000    -0.424000000
C    -0.113000000     2.995000000    -0.856000000
O     0.397000000     3.836000000    -0.186000000
O    -0.573000000     3.184000000    -1.992000000
