14
-91.25030
C     0.248000000     0.853000000     1.142000000
H     0.574000000     1.412000000     2.016000000
C     0.650000000    -0.475000000     1.007000000
H     1.327000000    -0.916000000     1.734000000
C     0.357000000    -1.194000000    -0.161000000
H     0.685000000    -2.212000000    -0.374000000
C    -0.468000000    -0.569000000    -1.130000000
H    -0.728000000    -1.140000000    -2.018000000
C    -0.734000000     0.804000000    -0.973000000
H    -1.361000000     1.234000000    -1.750000000
C    -0.445000000     1.518000000     0.166000000
C    -0.932000000     2.942000000     0.326000000
O    -0.731000000     3.589000000     1.382000000
O    -1.443000000     3.480000000    -0.640000000
