14
-88.47272
C    -0.299000000     1.030000000     0.999000000
H    -0.486000000     1.781000000     1.763000000
C     0.366000000    -0.181000000     1.246000000
H     0.725000000    -0.371000000     2.254000000
C     0.553000000    -1.105000000     0.235000000
H     1.069000000    -1.987000000     0.449000000
C     0.182000000    -0.735000000    -1.074000000
H     0.502000000    -1.369000000    -1.897000000
C    -0.483000000     0.411000000    -1.329000000
H    -0.733000000     0.585000000    -2.372000000
C    -0.749000000     1.338000000    -0.332000000
C    -1.637000000     2.614000000    -0.567000000
O    -1.800000000     3.483000000     0.248000000
O    -2.251000000     2.634000000    -1.628000000
