14
-78.47979
C     0.653000000    -0.897000000     0.989000000
H     1.170000000    -1.509000000     1.723000000
C     0.892000000     0.471000000     0.705000000
H     1.745000000     0.973000000     1.154000000
C     0.146000000     1.174000000    -0.209000000
H     0.435000000     2.198000000    -0.405000000
C    -0.913000000     0.611000000    -0.769000000
H    -1.349000000     1.213000000    -1.562000000
C    -1.134000000    -0.751000000    -0.619000000
H    -1.892000000    -1.159000000    -1.284000000
C    -0.334000000    -1.516000000     0.331000000
C    -0.428000000    -3.028000000     0.478000000
O    -1.101000000    -3.571000000    -0.386000000
O     0.235000000    -3.657000000     1.266000000
