14
-89.86356
C    -1.037000000     0.441000000     0.888000000
H    -1.743000000     0.759000000     1.651000000
C     0.245000000     0.118000000     1.246000000
H     0.509000000     0.231000000     2.295000000
C     1.137000000    -0.329000000     0.293000000
H     2.127000000    -0.630000000     0.572000000
C     0.776000000    -0.473000000    -1.026000000
H     1.488000000    -0.886000000    -1.736000000
C    -0.471000000    -0.050000000    -1.408000000
H    -0.860000000    -0.165000000    -2.417000000
C    -1.392000000     0.378000000    -0.481000000
C    -2.810000000     0.782000000    -0.829000000
O    -3.625000000     1.160000000     0.031000000
O    -3.084000000     0.978000000    -2.005000000
