14
-83.14689
C    -0.360000000     1.233000000     0.779000000
H    -0.752000000     1.943000000     1.502000000
C     0.547000000     0.217000000     1.181000000
H     0.971000000     0.257000000     2.181000000
C     0.827000000    -0.818000000     0.332000000
H     1.571000000    -1.572000000     0.725000000
C     0.481000000    -0.765000000    -0.975000000
H     0.986000000    -1.456000000    -1.645000000
C    -0.452000000     0.229000000    -1.362000000
H    -0.673000000     0.245000000    -2.426000000
C    -0.980000000     1.199000000    -0.472000000
C    -2.029000000     2.172000000    -0.962000000
O    -2.571000000     2.735000000    -0.031000000
O    -2.519000000     2.085000000    -2.090000000
