14
-93.14331
C    -0.892000000    -0.562000000     0.969000000
H    -1.474000000    -1.075000000     1.730000000
C     0.463000000    -0.842000000     0.798000000
H     0.942000000    -1.527000000     1.493000000
C     1.210000000    -0.285000000    -0.199000000
H     2.213000000    -0.550000000    -0.294000000
C     0.550000000     0.673000000    -1.024000000
H     1.188000000     1.269000000    -1.673000000
C    -0.796000000     0.932000000    -0.860000000
H    -1.281000000     1.674000000    -1.490000000
C    -1.570000000     0.296000000     0.146000000
C    -2.999000000     0.634000000     0.352000000
O    -3.480000000     0.383000000     1.444000000
O    -3.581000000     1.270000000    -0.561000000
