14
-92.06918
C    -0.782000000     0.866000000     0.933000000
H    -1.130000000     1.651000000     1.599000000
C     0.512000000     0.390000000     1.154000000
H     1.079000000     0.758000000     2.006000000
C     1.074000000    -0.491000000     0.213000000
H     2.073000000    -0.904000000     0.333000000
C     0.435000000    -0.869000000    -0.993000000
H     0.862000000    -1.537000000    -1.736000000
C    -0.810000000    -0.270000000    -1.246000000
H    -1.264000000    -0.480000000    -2.211000000
C    -1.408000000     0.555000000    -0.280000000
C    -2.769000000     1.128000000    -0.606000000
O    -3.004000000     2.282000000    -0.254000000
O    -3.559000000     0.516000000    -1.359000000
