14
-89.30118
C    -0.776000000     1.204000000     0.390000000
H    -1.033000000     2.190000000     0.767000000
C     0.349000000     0.657000000     1.040000000
H     0.853000000     1.223000000     1.819000000
C     0.995000000    -0.495000000     0.580000000
H     1.960000000    -0.780000000     1.111000000
C     0.328000000    -1.201000000    -0.448000000
H     0.749000000    -2.152000000    -0.765000000
C    -0.896000000    -0.726000000    -0.988000000
H    -1.369000000    -1.318000000    -1.767000000
C    -1.398000000     0.514000000    -0.655000000
C    -2.521000000     1.271000000    -1.382000000
O    -2.776000000     2.440000000    -1.069000000
O    -2.953000000     0.746000000    -2.388000000
