14
-86.36044
C    -0.942000000    -0.970000000    -0.522000000
H    -1.763000000    -1.612000000    -0.832000000
C    -1.241000000     0.051000000     0.301000000
H    -2.267000000     0.311000000     0.549000000
C    -0.250000000     0.890000000     0.733000000
H    -0.480000000     1.816000000     1.387000000
C     1.059000000     0.726000000     0.371000000
H     1.888000000     1.315000000     0.755000000
C     1.384000000    -0.321000000    -0.493000000
H     2.416000000    -0.348000000    -0.834000000
C     0.390000000    -1.250000000    -0.836000000
C     0.774000000    -2.348000000    -1.822000000
O    -0.035000000    -2.693000000    -2.706000000
O     1.921000000    -2.712000000    -1.834000000
