14
-79.33147
C    -0.502000000     1.332000000     0.483000000
H    -0.840000000     2.265000000     0.927000000
C     0.701000000     0.749000000     0.790000000
H     1.267000000     1.174000000     1.616000000
C     1.070000000    -0.479000000     0.257000000
H     1.776000000    -1.070000000     0.825000000
C     0.289000000    -1.165000000    -0.530000000
H     0.533000000    -2.177000000    -0.844000000
C    -0.929000000    -0.576000000    -0.920000000
H    -1.551000000    -1.136000000    -1.613000000
C    -1.377000000     0.645000000    -0.364000000
C    -2.667000000     1.332000000    -0.805000000
O    -3.189000000     2.168000000    -0.102000000
O    -3.243000000     0.947000000    -1.818000000
