14
-79.39050
C    -1.049000000     0.993000000    -0.151000000
H    -1.781000000     1.777000000     0.023000000
C     0.295000000     1.314000000     0.049000000
H     0.636000000     2.318000000     0.292000000
C     1.164000000     0.289000000     0.216000000
H     2.254000000     0.385000000     0.488000000
C     0.743000000    -1.004000000     0.027000000
H     1.487000000    -1.792000000     0.116000000
C    -0.536000000    -1.300000000    -0.307000000
H    -0.762000000    -2.362000000    -0.351000000
C    -1.495000000    -0.286000000    -0.255000000
C    -2.957000000    -0.581000000    -0.721000000
O    -3.839000000     0.206000000    -0.443000000
O    -3.239000000    -1.626000000    -1.231000000
