14
-82.75138
C    -1.118000000    -0.130000000    -1.032000000
H    -1.929000000    -0.019000000    -1.747000000
C    -1.261000000     0.501000000     0.234000000
H    -2.124000000     1.091000000     0.531000000
C    -0.169000000     0.462000000     1.140000000
H    -0.325000000     0.872000000     2.153000000
C     1.054000000    -0.101000000     0.751000000
H     1.881000000     0.100000000     1.428000000
C     1.157000000    -0.746000000    -0.494000000
H     2.089000000    -1.289000000    -0.626000000
C     0.113000000    -0.684000000    -1.427000000
C     0.275000000    -1.164000000    -2.874000000
O    -0.667000000    -1.475000000    -3.628000000
O     1.362000000    -1.459000000    -3.316000000
