14
-89.59614
C    -1.228000000    -0.584000000    -0.513000000
H    -2.228000000    -0.964000000    -0.705000000
C    -1.153000000     0.278000000     0.610000000
H    -2.092000000     0.504000000     1.110000000
C     0.099000000     0.762000000     0.957000000
H     0.181000000     1.430000000     1.844000000
C     1.234000000     0.331000000     0.289000000
H     2.220000000     0.588000000     0.668000000
C     1.109000000    -0.477000000    -0.799000000
H     2.026000000    -0.813000000    -1.276000000
C    -0.090000000    -0.984000000    -1.251000000
C    -0.168000000    -1.958000000    -2.458000000
O    -1.158000000    -2.665000000    -2.655000000
O     0.676000000    -1.816000000    -3.320000000
