14
-79.58860
C    -1.083000000    -1.050000000     0.101000000
H    -2.019000000    -1.567000000     0.297000000
C    -0.583000000    -0.235000000     1.134000000
H    -1.193000000    -0.129000000     2.028000000
C     0.499000000     0.618000000     0.914000000
H     0.828000000     1.194000000     1.733000000
C     1.123000000     0.615000000    -0.311000000
H     1.900000000     1.358000000    -0.471000000
C     0.696000000    -0.236000000    -1.327000000
H     1.243000000    -0.333000000    -2.261000000
C    -0.487000000    -0.963000000    -1.184000000
C    -1.084000000    -1.465000000    -2.393000000
O    -1.891000000    -2.357000000    -2.261000000
O    -0.846000000    -1.042000000    -3.483000000
