14
-82.63912
C    -0.054000000    -0.645000000     1.304000000
H    -0.318000000    -1.052000000     2.276000000
C    -0.445000000     0.634000000     0.999000000
H    -0.863000000     1.246000000     1.794000000
C    -0.344000000     1.130000000    -0.244000000
H    -0.783000000     2.116000000    -0.531000000
C     0.077000000     0.320000000    -1.295000000
H     0.060000000     0.578000000    -2.351000000
C     0.612000000    -0.890000000    -0.986000000
H     0.911000000    -1.475000000    -1.852000000
C     0.551000000    -1.439000000     0.282000000
C     0.906000000    -2.871000000     0.551000000
O     1.184000000    -3.560000000    -0.393000000
O     0.983000000    -3.245000000     1.685000000
