14
-83.61898
C    -0.835000000    -1.138000000    -0.571000000
H    -1.253000000    -1.998000000    -1.088000000
C     0.137000000    -1.281000000     0.386000000
H     0.484000000    -2.270000000     0.675000000
C     0.807000000    -0.171000000     0.915000000
H     1.625000000    -0.371000000     1.661000000
C     0.464000000     1.044000000     0.473000000
H     0.992000000     1.934000000     0.808000000
C    -0.570000000     1.218000000    -0.432000000
H    -0.734000000     2.249000000    -0.734000000
C    -1.268000000     0.154000000    -0.996000000
C    -2.108000000     0.428000000    -2.167000000
O    -2.571000000    -0.503000000    -2.743000000
O    -2.445000000     1.580000000    -2.444000000
