14
-84.67260
C     0.251000000    -1.523000000    -0.099000000
H     0.520000000    -2.562000000    -0.273000000
C     1.128000000    -0.580000000     0.374000000
H     2.150000000    -0.850000000     0.627000000
C     0.825000000     0.778000000     0.485000000
H     1.508000000     1.549000000     0.884000000
C    -0.453000000     1.261000000     0.052000000
H    -0.759000000     2.300000000    -0.035000000
C    -1.377000000     0.326000000    -0.368000000
H    -2.317000000     0.758000000    -0.700000000
C    -1.021000000    -1.076000000    -0.438000000
C    -2.125000000    -1.988000000    -0.879000000
O    -1.977000000    -3.187000000    -0.841000000
O    -3.111000000    -1.543000000    -1.430000000
