14
-87.91399
C    -0.862000000    -0.909000000    -0.780000000
H    -1.420000000    -1.673000000    -1.315000000
C     0.101000000    -1.301000000     0.164000000
H     0.326000000    -2.326000000     0.447000000
C     0.863000000    -0.332000000     0.819000000
H     1.507000000    -0.592000000     1.702000000
C     0.716000000     0.994000000     0.488000000
H     1.296000000     1.777000000     0.969000000
C    -0.222000000     1.355000000    -0.467000000
H    -0.412000000     2.425000000    -0.496000000
C    -1.007000000     0.419000000    -1.086000000
C    -2.144000000     0.887000000    -2.006000000
O    -2.850000000     0.069000000    -2.580000000
O    -2.320000000     2.088000000    -2.314000000
