14
-87.01255
C    -0.171000000    -1.037000000     1.039000000
H    -0.372000000    -1.824000000     1.761000000
C    -0.953000000     0.080000000     0.975000000
H    -1.766000000     0.179000000     1.689000000
C    -0.625000000     1.046000000     0.048000000
H    -1.094000000     1.948000000     0.028000000
C     0.402000000     0.855000000    -0.912000000
H     0.575000000     1.585000000    -1.698000000
C     1.097000000    -0.370000000    -0.915000000
H     1.859000000    -0.624000000    -1.648000000
C     0.783000000    -1.343000000     0.063000000
C     1.438000000    -2.690000000    -0.059000000
O     2.215000000    -2.997000000    -0.957000000
O     1.259000000    -3.399000000     0.888000000
