14
-82.65087
C    -1.415000000    -0.201000000     0.099000000
H    -2.472000000    -0.404000000     0.251000000
C    -0.516000000    -0.665000000     1.009000000
H    -0.817000000    -1.288000000     1.846000000
C     0.815000000    -0.444000000     0.788000000
H     1.456000000    -0.920000000     1.368000000
C     1.205000000     0.325000000    -0.306000000
H     2.260000000     0.440000000    -0.542000000
C     0.338000000     0.887000000    -1.122000000
H     0.647000000     1.455000000    -1.996000000
C    -1.027000000     0.636000000    -0.914000000
C    -2.091000000     1.050000000    -1.937000000
O    -3.146000000     0.433000000    -1.966000000
O    -1.948000000     2.044000000    -2.676000000
