14
-74.40908
C    -0.875000000    -0.868000000    -0.929000000
H    -1.605000000    -1.561000000    -1.338000000
C    -0.070000000    -1.293000000     0.215000000
H    -0.110000000    -2.282000000     0.663000000
C     0.715000000    -0.382000000     0.973000000
H     1.329000000    -0.765000000     1.793000000
C     0.796000000     0.936000000     0.524000000
H     1.479000000     1.547000000     1.108000000
C     0.006000000     1.312000000    -0.598000000
H     0.024000000     2.371000000    -0.845000000
C    -0.946000000     0.474000000    -1.262000000
C    -1.749000000     0.901000000    -2.457000000
O    -2.797000000     0.417000000    -2.606000000
O    -1.458000000     1.904000000    -3.149000000
