14
-90.74239
C    -0.663000000    -0.958000000    -0.884000000
H    -1.032000000    -1.737000000    -1.547000000
C     0.048000000    -1.322000000     0.226000000
H     0.139000000    -2.384000000     0.438000000
C     0.550000000    -0.322000000     1.071000000
H     1.239000000    -0.569000000     1.837000000
C     0.391000000     1.017000000     0.755000000
H     0.993000000     1.788000000     1.229000000
C    -0.374000000     1.400000000    -0.332000000
H    -0.326000000     2.470000000    -0.518000000
C    -0.918000000     0.426000000    -1.188000000
C    -1.793000000     0.813000000    -2.377000000
O    -2.725000000     0.104000000    -2.755000000
O    -1.456000000     1.857000000    -2.988000000
