14
-90.13443
C     0.899000000     0.597000000     1.026000000
H     1.428000000     1.021000000     1.876000000
C    -0.482000000     0.511000000     1.124000000
H    -1.003000000     0.934000000     1.980000000
C    -1.202000000    -0.143000000     0.087000000
H    -2.332000000    -0.138000000     0.097000000
C    -0.601000000    -0.559000000    -1.091000000
H    -1.213000000    -1.001000000    -1.873000000
C     0.787000000    -0.365000000    -1.153000000
H     1.369000000    -0.721000000    -2.000000000
C     1.521000000     0.204000000    -0.130000000
C     3.036000000     0.383000000    -0.209000000
O     3.619000000     0.361000000    -1.307000000
O     3.673000000     0.654000000     0.787000000
