14
-89.60038
C    -1.229000000    -0.710000000     0.331000000
H    -2.086000000    -1.322000000     0.601000000
C    -0.065000000    -0.812000000     1.115000000
H    -0.082000000    -1.294000000     2.089000000
C     1.105000000    -0.129000000     0.644000000
H     2.092000000    -0.033000000     1.124000000
C     1.024000000     0.576000000    -0.549000000
H     1.860000000     1.086000000    -1.021000000
C    -0.141000000     0.631000000    -1.278000000
H    -0.140000000     1.094000000    -2.261000000
C    -1.339000000     0.061000000    -0.831000000
C    -2.662000000     0.187000000    -1.476000000
O    -3.575000000    -0.586000000    -1.157000000
O    -2.812000000     0.972000000    -2.442000000
