14
-85.24367
C    -0.893000000    -1.149000000     0.024000000
H    -1.528000000    -1.980000000     0.319000000
C     0.240000000    -1.021000000     0.796000000
H     0.467000000    -1.721000000     1.595000000
C     0.940000000     0.173000000     0.770000000
H     1.734000000     0.407000000     1.540000000
C     0.611000000     1.075000000    -0.196000000
H     1.199000000     1.984000000    -0.303000000
C    -0.422000000     0.913000000    -1.165000000
H    -0.691000000     1.604000000    -1.960000000
C    -1.182000000    -0.218000000    -1.030000000
C    -2.422000000    -0.361000000    -1.903000000
O    -3.353000000    -1.112000000    -1.629000000
O    -2.428000000     0.166000000    -3.031000000
