14
-87.01571
C    -0.947000000    -1.120000000    -0.339000000
H    -1.582000000    -2.000000000    -0.400000000
C    -0.585000000    -0.731000000     0.955000000
H    -1.032000000    -1.310000000     1.760000000
C     0.262000000     0.414000000     1.147000000
H     0.609000000     0.690000000     2.140000000
C     0.742000000     1.098000000     0.032000000
H     1.501000000     1.856000000     0.206000000
C     0.394000000     0.683000000    -1.227000000
H     0.920000000     1.115000000    -2.074000000
C    -0.423000000    -0.451000000    -1.477000000
C    -0.714000000    -0.791000000    -2.889000000
O    -1.504000000    -1.715000000    -3.184000000
O    -0.073000000    -0.305000000    -3.795000000
