14
-73.34457
C    -1.047000000    -0.875000000    -0.476000000
H    -1.867000000    -1.500000000    -0.818000000
C    -0.815000000    -0.627000000     0.878000000
H    -1.359000000    -1.095000000     1.694000000
C     0.298000000     0.271000000     1.180000000
H     0.690000000     0.437000000     2.183000000
C     1.039000000     0.883000000     0.139000000
H     1.819000000     1.622000000     0.303000000
C     0.633000000     0.709000000    -1.166000000
H     1.231000000     1.157000000    -1.956000000
C    -0.351000000    -0.256000000    -1.529000000
C    -0.746000000    -0.760000000    -2.893000000
O    -1.538000000    -1.605000000    -3.034000000
O    -0.111000000    -0.429000000    -3.852000000
