14
-85.64143
C    -1.352000000    -0.308000000     0.627000000
H    -2.341000000    -0.397000000     1.070000000
C    -0.402000000     0.604000000     1.093000000
H    -0.517000000     1.206000000     1.991000000
C     0.783000000     0.803000000     0.415000000
H     1.511000000     1.518000000     0.908000000
C     1.185000000     0.015000000    -0.633000000
H     2.104000000     0.272000000    -1.153000000
C     0.278000000    -0.925000000    -1.079000000
H     0.544000000    -1.470000000    -1.981000000
C    -1.020000000    -1.094000000    -0.487000000
C    -2.005000000    -2.148000000    -0.982000000
O    -3.122000000    -2.163000000    -0.570000000
O    -1.699000000    -2.899000000    -1.900000000
