14
-84.90725
C    -1.424000000    -0.372000000    -0.248000000
H    -2.481000000    -0.582000000    -0.390000000
C    -1.069000000     0.703000000     0.564000000
H    -1.742000000     1.348000000     1.125000000
C     0.302000000     0.885000000     0.769000000
H     0.615000000     1.689000000     1.284000000
C     1.319000000     0.102000000     0.216000000
H     2.329000000     0.342000000     0.537000000
C     0.904000000    -0.908000000    -0.639000000
H     1.718000000    -1.445000000    -1.118000000
C    -0.440000000    -1.178000000    -0.883000000
C    -0.727000000    -2.335000000    -1.877000000
O    -1.915000000    -2.575000000    -2.182000000
O     0.115000000    -3.193000000    -2.225000000
