14
-92.87003
C     0.020000000    -1.210000000    -0.890000000
H     0.085000000    -2.200000000    -1.332000000
C     0.607000000    -1.038000000     0.352000000
H     1.183000000    -1.855000000     0.779000000
C     0.602000000     0.144000000     1.049000000
H     1.155000000     0.254000000     2.003000000
C     0.041000000     1.268000000     0.453000000
H     0.102000000     2.212000000     0.988000000
C    -0.702000000     1.118000000    -0.720000000
H    -1.287000000     1.916000000    -1.171000000
C    -0.645000000    -0.069000000    -1.437000000
C    -1.408000000    -0.313000000    -2.716000000
O    -1.285000000    -1.394000000    -3.324000000
O    -2.122000000     0.616000000    -3.167000000
