14
-92.07459
C    -0.437000000    -0.645000000     1.230000000
H    -0.901000000    -1.088000000     2.107000000
C    -0.690000000     0.711000000     0.957000000
H    -1.215000000     1.329000000     1.680000000
C    -0.277000000     1.230000000    -0.295000000
H    -0.367000000     2.258000000    -0.565000000
C     0.361000000     0.343000000    -1.123000000
H     0.589000000     0.685000000    -2.129000000
C     0.667000000    -0.981000000    -0.792000000
H     1.134000000    -1.635000000    -1.524000000
C     0.318000000    -1.498000000     0.444000000
C     0.635000000    -2.958000000     0.833000000
O     1.462000000    -3.533000000     0.153000000
O     0.150000000    -3.472000000     1.855000000
