14
-90.44256
C    -0.405000000    -1.344000000    -0.368000000
H    -0.722000000    -2.371000000    -0.529000000
C    -0.138000000    -0.859000000     0.921000000
H    -0.245000000    -1.581000000     1.727000000
C     0.319000000     0.427000000     1.113000000
H     0.465000000     0.732000000     2.142000000
C     0.443000000     1.293000000     0.031000000
H     0.816000000     2.299000000     0.207000000
C     0.193000000     0.773000000    -1.280000000
H     0.292000000     1.510000000    -2.072000000
C    -0.323000000    -0.507000000    -1.468000000
C    -0.619000000    -1.090000000    -2.836000000
O    -0.827000000    -2.304000000    -2.970000000
O    -0.830000000    -0.360000000    -3.785000000
