14
-93.20077
C    -0.536000000    -1.250000000    -0.436000000
H    -0.900000000    -2.270000000    -0.519000000
C    -1.103000000    -0.420000000     0.539000000
H    -1.961000000    -0.770000000     1.108000000
C    -0.487000000     0.798000000     0.823000000
H    -0.901000000     1.558000000     1.509000000
C     0.662000000     1.171000000     0.146000000
H     1.152000000     2.116000000     0.366000000
C     1.226000000     0.360000000    -0.784000000
H     2.156000000     0.560000000    -1.310000000
C     0.640000000    -0.883000000    -1.084000000
C     1.320000000    -1.987000000    -1.992000000
O     0.956000000    -3.180000000    -1.818000000
O     2.071000000    -1.652000000    -2.908000000
