14
-85.70891
C    -0.936000000    -1.179000000     0.129000000
H    -1.690000000    -1.951000000     0.262000000
C    -1.142000000     0.156000000     0.506000000
H    -2.085000000     0.346000000     1.012000000
C    -0.255000000     1.180000000     0.296000000
H    -0.549000000     2.123000000     0.639000000
C     0.931000000     0.887000000    -0.315000000
H     1.690000000     1.660000000    -0.402000000
C     1.205000000    -0.431000000    -0.733000000
H     2.064000000    -0.668000000    -1.356000000
C     0.290000000    -1.473000000    -0.473000000
C     0.502000000    -2.920000000    -0.843000000
O     1.500000000    -3.307000000    -1.441000000
O    -0.237000000    -3.721000000    -0.366000000
