14
-87.90258
C    -0.392000000     0.542000000    -1.309000000
H    -0.792000000     0.861000000    -2.268000000
C    -1.125000000     0.534000000    -0.158000000
H    -2.158000000     0.873000000    -0.143000000
C    -0.601000000     0.182000000     1.081000000
H    -1.294000000     0.229000000     1.990000000
C     0.750000000    -0.223000000     1.092000000
H     1.165000000    -0.627000000     2.012000000
C     1.457000000    -0.366000000    -0.096000000
H     2.446000000    -0.816000000    -0.068000000
C     0.846000000    -0.122000000    -1.333000000
C     1.481000000    -0.495000000    -2.641000000
O     1.081000000     0.035000000    -3.690000000
O     2.219000000    -1.491000000    -2.715000000
