14
-77.24787
C    -0.955000000    -0.713000000     0.810000000
H    -1.716000000    -1.164000000     1.442000000
C    -0.853000000     0.686000000     0.713000000
H    -1.520000000     1.263000000     1.348000000
C     0.059000000     1.233000000    -0.193000000
H     0.237000000     2.323000000    -0.291000000
C     1.067000000     0.407000000    -0.742000000
H     1.885000000     0.923000000    -1.239000000
C     0.985000000    -1.032000000    -0.666000000
H     1.690000000    -1.657000000    -1.207000000
C    -0.056000000    -1.542000000     0.078000000
C    -0.217000000    -3.052000000     0.286000000
O     0.545000000    -3.807000000    -0.229000000
O    -1.188000000    -3.588000000     0.763000000
