14
-94.36658
C     0.020000000     0.462000000    -1.449000000
H     0.075000000     0.835000000    -2.468000000
C    -0.442000000     1.262000000    -0.346000000
H    -0.976000000     2.191000000    -0.530000000
C    -0.441000000     0.693000000     0.948000000
H    -0.765000000     1.319000000     1.812000000
C     0.133000000    -0.568000000     1.138000000
H     0.125000000    -0.961000000     2.152000000
C     0.601000000    -1.322000000     0.054000000
H     0.943000000    -2.342000000     0.210000000
C     0.532000000    -0.832000000    -1.261000000
C     1.086000000    -1.650000000    -2.386000000
O     0.857000000    -1.260000000    -3.522000000
O     1.709000000    -2.670000000    -2.087000000
