14
-88.93082
C     0.498000000    -0.009000000    -1.420000000
H     0.980000000     0.046000000    -2.393000000
C     1.133000000     0.653000000    -0.343000000
H     2.084000000     1.170000000    -0.442000000
C     0.556000000     0.672000000     0.920000000
H     0.908000000     1.326000000     1.730000000
C    -0.661000000    -0.040000000     1.090000000
H    -1.136000000    -0.086000000     2.067000000
C    -1.160000000    -0.819000000     0.054000000
H    -2.008000000    -1.488000000     0.169000000
C    -0.653000000    -0.808000000    -1.263000000
C    -1.091000000    -1.781000000    -2.293000000
O    -0.647000000    -1.607000000    -3.419000000
O    -1.853000000    -2.621000000    -1.935000000
