14
-87.10015
C     0.216000000     0.870000000    -1.121000000
H     0.364000000     1.659000000    -1.854000000
C     0.557000000     1.081000000     0.189000000
H     1.019000000     2.006000000     0.525000000
C     0.401000000     0.092000000     1.152000000
H     0.685000000     0.262000000     2.139000000
C    -0.137000000    -1.136000000     0.744000000
H    -0.326000000    -1.901000000     1.493000000
C    -0.568000000    -1.241000000    -0.547000000
H    -1.080000000    -2.165000000    -0.804000000
C    -0.435000000    -0.296000000    -1.507000000
C    -1.035000000    -0.321000000    -2.886000000
O    -1.058000000     0.714000000    -3.507000000
O    -1.543000000    -1.327000000    -3.365000000
