14
-75.90375
C     0.315000000     0.625000000    -1.275000000
H     0.485000000     1.197000000    -2.184000000
C     0.552000000     1.207000000    -0.092000000
H     1.023000000     2.180000000     0.021000000
C     0.253000000     0.470000000     1.090000000
H     0.394000000     0.847000000     2.028000000
C    -0.388000000    -0.703000000     0.968000000
H    -0.854000000    -1.114000000     1.860000000
C    -0.684000000    -1.315000000    -0.210000000
H    -1.228000000    -2.255000000    -0.152000000
C    -0.278000000    -0.633000000    -1.398000000
C    -0.509000000    -1.263000000    -2.726000000
O    -0.247000000    -0.730000000    -3.780000000
O    -1.032000000    -2.314000000    -2.686000000
