14
-88.40063
C     0.447000000    -0.137000000    -1.409000000
H     0.861000000    -0.252000000    -2.408000000
C     1.133000000     0.574000000    -0.388000000
H     2.143000000     0.891000000    -0.636000000
C     0.567000000     0.719000000     0.901000000
H     1.084000000     1.306000000     1.644000000
C    -0.639000000     0.061000000     1.164000000
H    -1.218000000     0.254000000     2.063000000
C    -1.267000000    -0.668000000     0.161000000
H    -2.242000000    -1.089000000     0.391000000
C    -0.722000000    -0.862000000    -1.143000000
C    -1.353000000    -1.758000000    -2.152000000
O    -0.785000000    -2.010000000    -3.211000000
O    -2.392000000    -2.273000000    -1.875000000
