14
-85.65369
C    -0.582000000    -0.341000000     1.320000000
H    -1.134000000    -0.311000000     2.256000000
C    -0.189000000     0.909000000     0.859000000
H    -0.474000000     1.810000000     1.397000000
C     0.387000000     1.082000000    -0.404000000
H     0.748000000     2.058000000    -0.807000000
C     0.564000000    -0.048000000    -1.221000000
H     1.119000000     0.095000000    -2.144000000
C     0.068000000    -1.325000000    -0.789000000
H     0.237000000    -2.136000000    -1.493000000
C    -0.487000000    -1.480000000     0.443000000
C    -0.741000000    -2.820000000     1.051000000
O    -0.634000000    -3.829000000     0.325000000
O    -0.915000000    -2.874000000     2.220000000
