14
-80.58090
C     1.348000000     0.453000000    -0.345000000
H     2.328000000     0.910000000    -0.453000000
C     0.680000000     0.782000000     0.796000000
H     1.027000000     1.509000000     1.526000000
C    -0.594000000     0.266000000     1.040000000
H    -1.153000000     0.476000000     1.978000000
C    -1.131000000    -0.511000000     0.043000000
H    -2.155000000    -0.826000000     0.229000000
C    -0.460000000    -0.850000000    -1.116000000
H    -0.958000000    -1.536000000    -1.796000000
C     0.817000000    -0.351000000    -1.328000000
C     1.503000000    -0.734000000    -2.571000000
O     2.547000000    -0.170000000    -2.802000000
O     1.074000000    -1.472000000    -3.397000000
