14
-89.39316
C     1.060000000     0.599000000     0.914000000
H     1.823000000     0.880000000     1.635000000
C    -0.213000000     0.056000000     1.291000000
H    -0.486000000    -0.059000000     2.337000000
C    -1.128000000    -0.305000000     0.311000000
H    -2.063000000    -0.693000000     0.647000000
C    -0.741000000    -0.338000000    -1.029000000
H    -1.427000000    -0.710000000    -1.786000000
C     0.527000000     0.089000000    -1.333000000
H     0.739000000     0.067000000    -2.399000000
C     1.482000000     0.497000000    -0.415000000
C     2.899000000     0.586000000    -0.785000000
O     3.250000000     0.535000000    -1.964000000
O     3.702000000     0.681000000     0.151000000
