14
-83.29342
C     0.360000000    -0.799000000    -1.181000000
H     0.675000000    -1.377000000    -2.046000000
C     1.197000000    -0.008000000    -0.470000000
H     2.210000000     0.079000000    -0.853000000
C     0.825000000     0.669000000     0.646000000
H     1.486000000     1.344000000     1.206000000
C    -0.425000000     0.433000000     1.141000000
H    -0.838000000     1.002000000     1.970000000
C    -1.343000000    -0.409000000     0.536000000
H    -2.390000000    -0.401000000     0.831000000
C    -0.964000000    -0.976000000    -0.687000000
C    -1.990000000    -1.775000000    -1.410000000
O    -1.834000000    -1.942000000    -2.620000000
O    -3.134000000    -2.066000000    -0.955000000
