14
-82.45126
C     0.082000000    -1.421000000    -0.212000000
H     0.241000000    -2.465000000    -0.472000000
C     1.195000000    -0.639000000    -0.016000000
H     2.219000000    -0.998000000    -0.079000000
C     0.967000000     0.731000000     0.156000000
H     1.848000000     1.413000000     0.087000000
C    -0.284000000     1.221000000     0.236000000
H    -0.541000000     2.277000000     0.211000000
C    -1.441000000     0.413000000     0.310000000
H    -2.430000000     0.862000000     0.350000000
C    -1.245000000    -0.966000000     0.053000000
C    -2.409000000    -1.814000000    -0.099000000
O    -2.298000000    -3.040000000    -0.243000000
O    -3.503000000    -1.350000000     0.088000000
