14
-80.58207
C     0.770000000     0.828000000    -0.920000000
H     1.441000000     1.367000000    -1.584000000
C     1.308000000     0.245000000     0.218000000
H     2.353000000     0.431000000     0.450000000
C     0.502000000    -0.600000000     0.973000000
H     0.932000000    -1.010000000     1.914000000
C    -0.808000000    -0.767000000     0.635000000
H    -1.454000000    -1.387000000     1.252000000
C    -1.371000000    -0.038000000    -0.439000000
H    -2.414000000    -0.131000000    -0.729000000
C    -0.560000000     0.688000000    -1.254000000
C    -1.131000000     1.268000000    -2.555000000
O    -0.590000000     2.144000000    -3.156000000
O    -2.290000000     1.080000000    -2.897000000
