14
-79.63422
C    -0.084000000    -1.437000000    -0.284000000
H     0.056000000    -2.452000000    -0.646000000
C     1.082000000    -0.720000000    -0.143000000
H     2.036000000    -1.218000000    -0.290000000
C     1.055000000     0.564000000     0.318000000
H     1.926000000     1.057000000     0.059000000
C    -0.178000000     1.243000000     0.458000000
H    -0.147000000     2.321000000     0.595000000
C    -1.321000000     0.591000000     0.223000000
H    -2.299000000     1.051000000     0.339000000
C    -1.322000000    -0.801000000    -0.153000000
C    -2.618000000    -1.536000000    -0.539000000
O    -2.561000000    -2.656000000    -1.008000000
O    -3.692000000    -1.041000000    -0.291000000
