14
-88.00413
C     0.063000000    -1.381000000    -0.253000000
H     0.293000000    -2.421000000    -0.469000000
C     1.129000000    -0.513000000    -0.227000000
H     2.156000000    -0.854000000    -0.332000000
C     0.915000000     0.850000000     0.011000000
H     1.783000000     1.507000000     0.122000000
C    -0.395000000     1.273000000     0.127000000
H    -0.611000000     2.324000000     0.299000000
C    -1.442000000     0.359000000     0.078000000
H    -2.498000000     0.618000000     0.056000000
C    -1.202000000    -1.015000000    -0.065000000
C    -2.298000000    -2.067000000    -0.141000000
O    -1.967000000    -3.258000000    -0.360000000
O    -3.426000000    -1.810000000     0.180000000
