14
-84.42835
C     1.259000000     0.485000000    -0.562000000
H     2.245000000     0.880000000    -0.791000000
C     1.070000000     0.253000000     0.752000000
H     1.864000000     0.396000000     1.480000000
C    -0.115000000    -0.313000000     1.197000000
H    -0.293000000    -0.477000000     2.240000000
C    -1.144000000    -0.458000000     0.273000000
H    -2.142000000    -0.842000000     0.467000000
C    -1.021000000    -0.064000000    -1.041000000
H    -1.849000000    -0.205000000    -1.731000000
C     0.202000000     0.400000000    -1.490000000
C     0.406000000     0.752000000    -2.947000000
O     1.501000000     1.231000000    -3.211000000
O    -0.465000000     0.779000000    -3.775000000
