14
-84.75693
C     0.268000000     0.418000000    -1.380000000
H     0.502000000     0.577000000    -2.430000000
C    -0.313000000    -0.794000000    -0.968000000
H    -0.535000000    -1.559000000    -1.707000000
C    -0.501000000    -1.078000000     0.386000000
H    -0.819000000    -2.093000000     0.686000000
C    -0.109000000    -0.109000000     1.302000000
H    -0.211000000    -0.394000000     2.346000000
C     0.370000000     1.161000000     0.916000000
H     0.583000000     1.899000000     1.685000000
C     0.669000000     1.396000000    -0.473000000
C     1.135000000     2.714000000    -1.039000000
O     1.265000000     2.818000000    -2.214000000
O     1.358000000     3.654000000    -0.328000000
