14
-87.71748
C     0.999000000    -0.278000000    -1.108000000
H     1.536000000    -0.536000000    -2.017000000
C    -0.051000000    -1.095000000    -0.697000000
H    -0.136000000    -2.066000000    -1.179000000
C    -0.871000000    -0.783000000     0.378000000
H    -1.571000000    -1.487000000     0.787000000
C    -0.672000000     0.356000000     1.046000000
H    -1.236000000     0.539000000     1.957000000
C     0.343000000     1.306000000     0.672000000
H     0.379000000     2.264000000     1.183000000
C     1.198000000     0.963000000    -0.422000000
C     2.285000000     1.916000000    -0.943000000
O     3.154000000     1.546000000    -1.767000000
O     2.292000000     3.131000000    -0.617000000
