14
-82.38227
C     1.374000000    -0.393000000     0.644000000
H     2.200000000    -0.787000000     1.231000000
C     0.088000000    -0.584000000     1.121000000
H    -0.102000000    -1.112000000     2.051000000
C    -1.081000000    -0.244000000     0.491000000
H    -2.048000000    -0.579000000     0.955000000
C    -0.968000000     0.428000000    -0.682000000
H    -1.860000000     0.730000000    -1.224000000
C     0.261000000     0.660000000    -1.201000000
H     0.326000000     1.360000000    -2.030000000
C     1.489000000     0.260000000    -0.548000000
C     2.835000000     0.498000000    -1.149000000
O     3.741000000    -0.241000000    -0.857000000
O     2.902000000     1.255000000    -2.115000000
