14
-85.02687
C     0.213000000    -0.046000000    -1.452000000
H     0.287000000    -0.228000000    -2.521000000
C     0.212000000    -1.178000000    -0.593000000
H     0.304000000    -2.180000000    -1.004000000
C    -0.059000000    -0.959000000     0.767000000
H    -0.252000000    -1.756000000     1.498000000
C    -0.080000000     0.359000000     1.307000000
H    -0.303000000     0.510000000     2.360000000
C     0.032000000     1.446000000     0.414000000
H     0.037000000     2.437000000     0.860000000
C     0.181000000     1.265000000    -0.936000000
C     0.280000000     2.491000000    -1.886000000
O     0.525000000     2.253000000    -3.007000000
O    -0.239000000     3.535000000    -1.526000000
