14
-89.29882
C     0.128000000     0.247000000    -1.514000000
H     0.239000000     0.266000000    -2.595000000
C    -0.316000000    -0.941000000    -0.919000000
H    -0.640000000    -1.779000000    -1.530000000
C    -0.348000000    -1.098000000     0.474000000
H    -0.838000000    -2.021000000     0.980000000
C    -0.105000000     0.026000000     1.233000000
H    -0.314000000    -0.034000000     2.298000000
C     0.385000000     1.148000000     0.668000000
H     0.673000000     1.990000000     1.294000000
C     0.456000000     1.339000000    -0.698000000
C     0.710000000     2.745000000    -1.250000000
O     0.621000000     2.942000000    -2.458000000
O     0.918000000     3.632000000    -0.439000000
