14
-83.88162
C     0.174000000    -0.151000000    -1.442000000
H     0.459000000    -0.229000000    -2.488000000
C     0.923000000    -0.804000000    -0.494000000
H     1.834000000    -1.373000000    -0.658000000
C     0.650000000    -0.593000000     0.816000000
H     1.314000000    -1.054000000     1.559000000
C    -0.393000000     0.151000000     1.167000000
H    -0.489000000     0.302000000     2.239000000
C    -1.239000000     0.800000000     0.203000000
H    -2.060000000     1.443000000     0.509000000
C    -0.895000000     0.690000000    -1.132000000
C    -1.599000000     1.634000000    -2.084000000
O    -1.382000000     1.471000000    -3.295000000
O    -2.441000000     2.397000000    -1.688000000
