14
-88.90691
C    -0.675000000    -0.987000000    -0.889000000
H    -1.012000000    -1.713000000    -1.624000000
C    -0.004000000    -1.261000000     0.261000000
H     0.310000000    -2.265000000     0.537000000
C     0.584000000    -0.232000000     1.046000000
H     1.264000000    -0.416000000     1.884000000
C     0.442000000     1.055000000     0.701000000
H     0.923000000     1.817000000     1.308000000
C    -0.279000000     1.373000000    -0.455000000
H    -0.398000000     2.415000000    -0.741000000
C    -0.900000000     0.379000000    -1.214000000
C    -1.739000000     0.719000000    -2.422000000
O    -2.233000000    -0.147000000    -3.110000000
O    -1.999000000     1.905000000    -2.665000000
