14
-88.75404
C    -0.721000000     0.601000000     1.129000000
H    -1.227000000     1.156000000     1.915000000
C     0.260000000     1.178000000     0.386000000
H     0.601000000     2.197000000     0.552000000
C     0.923000000     0.471000000    -0.572000000
H     1.749000000     0.968000000    -1.058000000
C     0.568000000    -0.847000000    -0.925000000
H     1.138000000    -1.346000000    -1.705000000
C    -0.525000000    -1.452000000    -0.303000000
H    -0.848000000    -2.460000000    -0.547000000
C    -1.112000000    -0.705000000     0.771000000
C    -2.236000000    -1.298000000     1.563000000
O    -2.815000000    -2.326000000     1.231000000
O    -2.330000000    -0.870000000     2.738000000
