14
-86.92900
C    -0.951000000    -0.776000000    -0.853000000
H    -1.649000000    -1.481000000    -1.298000000
C    -0.038000000    -1.309000000     0.026000000
H     0.043000000    -2.369000000     0.251000000
C     0.757000000    -0.462000000     0.860000000
H     1.402000000    -0.870000000     1.567000000
C     0.716000000     0.905000000     0.659000000
H     1.254000000     1.560000000     1.340000000
C    -0.034000000     1.446000000    -0.427000000
H    -0.090000000     2.496000000    -0.702000000
C    -0.864000000     0.615000000    -1.203000000
C    -1.854000000     1.261000000    -2.113000000
O    -2.608000000     0.568000000    -2.762000000
O    -1.841000000     2.470000000    -2.287000000
