14
-86.65234
C    -0.655000000    -1.000000000    -0.952000000
H    -0.983000000    -1.723000000    -1.694000000
C     0.195000000    -1.335000000     0.058000000
H     0.722000000    -2.279000000    -0.057000000
C     0.692000000    -0.343000000     0.967000000
H     1.375000000    -0.677000000     1.680000000
C     0.335000000     0.996000000     0.875000000
H     0.767000000     1.714000000     1.567000000
C    -0.636000000     1.373000000    -0.058000000
H    -0.957000000     2.411000000    -0.108000000
C    -1.127000000     0.411000000    -0.967000000
C    -2.046000000     0.917000000    -2.079000000
O    -2.457000000     0.144000000    -2.929000000
O    -2.463000000     2.088000000    -2.060000000
