14
-84.25776
C    -0.667000000    -0.389000000    -1.275000000
H    -1.133000000    -0.823000000    -2.156000000
C    -0.903000000    -0.975000000    -0.034000000
H    -1.516000000    -1.872000000     0.012000000
C    -0.244000000    -0.545000000     1.083000000
H    -0.469000000    -1.052000000     2.028000000
C     0.665000000     0.509000000     1.029000000
H     1.202000000     0.852000000     1.910000000
C     0.812000000     1.203000000    -0.205000000
H     1.466000000     2.069000000    -0.266000000
C     0.192000000     0.703000000    -1.383000000
C     0.557000000     1.369000000    -2.684000000
O     0.214000000     0.974000000    -3.773000000
O     1.045000000     2.481000000    -2.691000000
