14
-84.01180
C    -0.691000000    -0.127000000    -1.296000000
H    -1.235000000    -0.209000000    -2.234000000
C    -0.844000000    -0.956000000    -0.171000000
H    -1.501000000    -1.817000000    -0.257000000
C    -0.067000000    -0.766000000     0.988000000
H    -0.257000000    -1.360000000     1.882000000
C     0.696000000     0.405000000     1.073000000
H     1.187000000     0.593000000     2.025000000
C     0.804000000     1.237000000     0.001000000
H     1.508000000     2.064000000     0.044000000
C     0.188000000     0.938000000    -1.177000000
C     0.359000000     1.787000000    -2.442000000
O    -0.358000000     1.672000000    -3.432000000
O     1.141000000     2.698000000    -2.486000000
