14
-83.03647
C    -0.396000000    -0.032000000    -1.397000000
H    -0.693000000    -0.147000000    -2.437000000
C    -1.191000000    -0.419000000    -0.392000000
H    -2.195000000    -0.757000000    -0.635000000
C    -0.753000000    -0.318000000     0.972000000
H    -1.416000000    -0.666000000     1.794000000
C     0.570000000     0.244000000     1.187000000
H     1.019000000     0.265000000     2.177000000
C     1.374000000     0.600000000     0.138000000
H     2.412000000     0.849000000     0.339000000
C     0.893000000     0.527000000    -1.193000000
C     1.764000000     0.864000000    -2.350000000
O     1.614000000     0.416000000    -3.496000000
O     2.706000000     1.600000000    -2.189000000
