14
-86.80907
C    -0.413000000    -0.073000000    -1.363000000
H    -0.828000000    -0.310000000    -2.339000000
C    -0.419000000    -1.105000000    -0.469000000
H    -0.827000000    -2.066000000    -0.772000000
C     0.049000000    -0.915000000     0.811000000
H     0.142000000    -1.747000000     1.426000000
C     0.533000000     0.344000000     1.174000000
H     0.935000000     0.444000000     2.179000000
C     0.441000000     1.420000000     0.337000000
H     0.718000000     2.411000000     0.687000000
C     0.011000000     1.217000000    -0.975000000
C     0.008000000     2.378000000    -1.995000000
O    -0.576000000     2.190000000    -3.037000000
O     0.465000000     3.475000000    -1.783000000
