14
-82.68914
C    -0.154000000    -0.500000000    -1.399000000
H    -0.321000000    -1.016000000    -2.342000000
C     0.296000000    -1.299000000    -0.387000000
H     0.610000000    -2.332000000    -0.510000000
C     0.434000000    -0.749000000     0.913000000
H     0.851000000    -1.447000000     1.631000000
C     0.161000000     0.626000000     1.133000000
H     0.181000000     1.107000000     2.108000000
C    -0.286000000     1.452000000     0.082000000
H    -0.552000000     2.499000000     0.212000000
C    -0.489000000     0.902000000    -1.219000000
C    -0.978000000     1.770000000    -2.328000000
O    -1.241000000     1.364000000    -3.417000000
O    -1.328000000     2.935000000    -2.081000000
