14
-72.73261
C    -1.296000000    -0.194000000    -0.686000000
H    -2.243000000    -0.321000000    -1.204000000
C    -0.746000000    -1.073000000     0.276000000
H    -1.340000000    -1.906000000     0.641000000
C     0.468000000    -0.824000000     0.880000000
H     0.788000000    -1.414000000     1.757000000
C     1.124000000     0.339000000     0.499000000
H     2.050000000     0.569000000     1.019000000
C     0.609000000     1.209000000    -0.470000000
H     1.080000000     2.144000000    -0.762000000
C    -0.560000000     0.894000000    -1.150000000
C    -1.218000000     1.887000000    -2.169000000
O    -2.191000000     1.672000000    -2.805000000
O    -0.548000000     2.770000000    -2.615000000
