14
-85.68449
C    -0.488000000    -0.006000000    -1.388000000
H    -0.932000000    -0.076000000    -2.378000000
C    -1.240000000    -0.379000000    -0.232000000
H    -2.238000000    -0.796000000    -0.338000000
C    -0.662000000    -0.325000000     0.994000000
H    -1.238000000    -0.645000000     1.863000000
C     0.608000000     0.242000000     1.133000000
H     1.087000000     0.446000000     2.087000000
C     1.416000000     0.559000000     0.028000000
H     2.478000000     0.718000000     0.195000000
C     0.878000000     0.456000000    -1.250000000
C     1.629000000     0.764000000    -2.522000000
O     1.034000000     0.948000000    -3.567000000
O     2.847000000     0.986000000    -2.558000000
