14
-82.11277
C     1.015000000     0.993000000    -0.401000000
H     1.528000000     1.905000000    -0.696000000
C     0.049000000     1.247000000     0.581000000
H     0.090000000     2.173000000     1.149000000
C    -0.882000000     0.219000000     0.800000000
H    -1.748000000     0.349000000     1.449000000
C    -0.748000000    -0.987000000     0.131000000
H    -1.428000000    -1.804000000     0.360000000
C     0.275000000    -1.248000000    -0.762000000
H     0.273000000    -2.168000000    -1.342000000
C     1.124000000    -0.237000000    -1.060000000
C     2.159000000    -0.408000000    -2.076000000
O     3.029000000     0.397000000    -2.137000000
O     2.208000000    -1.474000000    -2.664000000
