14
-79.62807
C     0.434000000     1.383000000     0.334000000
H     0.731000000     2.367000000     0.688000000
C    -0.378000000     0.549000000     1.114000000
H    -0.533000000     0.842000000     2.149000000
C    -0.788000000    -0.715000000     0.701000000
H    -1.432000000    -1.460000000     1.147000000
C    -0.380000000    -1.126000000    -0.571000000
H    -0.729000000    -2.080000000    -0.957000000
C     0.445000000    -0.305000000    -1.378000000
H     0.796000000    -0.641000000    -2.350000000
C     0.864000000     0.995000000    -0.937000000
C     1.815000000     1.858000000    -1.716000000
O     2.437000000     2.802000000    -1.181000000
O     2.381000000     1.343000000    -2.650000000
