14
-79.26261
C     0.613000000     1.155000000    -0.660000000
H     0.859000000     2.093000000    -1.150000000
C    -0.068000000     1.120000000     0.513000000
H    -0.360000000     2.049000000     0.998000000
C    -0.612000000    -0.030000000     1.085000000
H    -1.248000000     0.070000000     1.923000000
C    -0.340000000    -1.215000000     0.423000000
H    -0.677000000    -2.118000000     0.926000000
C     0.473000000    -1.243000000    -0.773000000
H     0.700000000    -2.205000000    -1.225000000
C     0.775000000    -0.033000000    -1.401000000
C     1.470000000     0.021000000    -2.747000000
O     1.532000000     1.032000000    -3.394000000
O     1.944000000    -0.961000000    -3.178000000
