14
-77.56154
C     1.326000000     0.612000000     0.245000000
H     2.162000000     1.116000000     0.723000000
C     0.244000000     1.269000000    -0.335000000
H     0.151000000     2.323000000    -0.582000000
C    -0.900000000     0.637000000    -0.500000000
H    -1.823000000     1.147000000    -0.966000000
C    -1.026000000    -0.737000000    -0.253000000
H    -1.942000000    -1.323000000    -0.235000000
C     0.065000000    -1.458000000     0.192000000
H    -0.026000000    -2.485000000     0.537000000
C     1.267000000    -0.783000000     0.488000000
C     2.316000000    -1.491000000     1.352000000
O     3.325000000    -0.949000000     1.680000000
O     2.150000000    -2.671000000     1.588000000
