14
-79.97144
C     0.769000000     0.655000000     0.996000000
H     1.288000000     1.081000000     1.850000000
C    -0.447000000    -0.008000000     1.133000000
H    -0.881000000    -0.102000000     2.125000000
C    -1.117000000    -0.563000000     0.076000000
H    -2.149000000    -0.954000000     0.171000000
C    -0.642000000    -0.319000000    -1.210000000
H    -1.156000000    -0.690000000    -2.093000000
C     0.647000000     0.285000000    -1.336000000
H     1.255000000     0.420000000    -2.228000000
C     1.391000000     0.694000000    -0.230000000
C     2.802000000     1.222000000    -0.329000000
O     3.247000000     1.676000000    -1.315000000
O     3.567000000     1.244000000     0.668000000
