14
-86.49179
C     1.092000000    -0.583000000     0.798000000
H     1.958000000    -0.999000000     1.306000000
C     1.256000000     0.426000000    -0.119000000
H     2.249000000     0.691000000    -0.472000000
C     0.115000000     0.932000000    -0.775000000
H     0.216000000     1.579000000    -1.588000000
C    -1.178000000     0.597000000    -0.347000000
H    -2.062000000     1.034000000    -0.804000000
C    -1.265000000    -0.413000000     0.653000000
H    -2.274000000    -0.732000000     0.898000000
C    -0.128000000    -1.032000000     1.175000000
C    -0.211000000    -2.352000000     1.902000000
O    -1.228000000    -2.665000000     2.472000000
O     0.756000000    -3.141000000     1.964000000
