14
-85.08863
C     0.919000000     0.123000000     1.135000000
H     1.572000000     0.303000000     1.985000000
C     0.405000000     1.213000000     0.426000000
H     0.554000000     2.190000000     0.880000000
C    -0.459000000     1.015000000    -0.615000000
H    -1.078000000     1.866000000    -1.016000000
C    -0.628000000    -0.297000000    -1.137000000
H    -1.323000000    -0.449000000    -1.958000000
C     0.059000000    -1.382000000    -0.538000000
H    -0.040000000    -2.404000000    -0.894000000
C     0.689000000    -1.205000000     0.703000000
C     1.331000000    -2.289000000     1.516000000
O     1.884000000    -2.074000000     2.581000000
O     1.258000000    -3.455000000     1.180000000
