14
-87.64845
C     0.065000000     0.612000000     1.308000000
H     0.022000000     1.282000000     2.163000000
C     0.005000000     1.309000000     0.111000000
H    -0.041000000     2.392000000     0.192000000
C    -0.067000000     0.599000000    -1.060000000
H    -0.093000000     1.056000000    -2.080000000
C    -0.050000000    -0.775000000    -1.021000000
H    -0.166000000    -1.402000000    -1.901000000
C     0.088000000    -1.492000000     0.138000000
H     0.219000000    -2.570000000     0.096000000
C     0.129000000    -0.802000000     1.349000000
C     0.452000000    -1.551000000     2.630000000
O     0.146000000    -1.089000000     3.726000000
O     0.773000000    -2.756000000     2.550000000
