14
-88.05257
C     0.182000000     0.523000000     1.436000000
H     0.287000000     1.020000000     2.397000000
C    -0.027000000     1.280000000     0.276000000
H    -0.067000000     2.343000000     0.497000000
C    -0.161000000     0.712000000    -0.971000000
H    -0.397000000     1.365000000    -1.867000000
C    -0.165000000    -0.654000000    -1.152000000
H    -0.276000000    -1.080000000    -2.146000000
C     0.012000000    -1.475000000    -0.025000000
H    -0.036000000    -2.559000000    -0.100000000
C     0.237000000    -0.918000000     1.283000000
C     0.298000000    -1.927000000     2.451000000
O     0.443000000    -1.418000000     3.527000000
O     0.146000000    -3.126000000     2.294000000
