14
-88.24545
C     1.043000000     0.470000000     0.888000000
H     1.731000000     0.958000000     1.574000000
C     0.690000000     1.139000000    -0.256000000
H     1.113000000     2.115000000    -0.478000000
C    -0.378000000     0.594000000    -1.014000000
H    -0.713000000     0.998000000    -1.925000000
C    -0.985000000    -0.630000000    -0.679000000
H    -1.681000000    -1.195000000    -1.294000000
C    -0.566000000    -1.238000000     0.512000000
H    -0.997000000    -2.201000000     0.776000000
C     0.438000000    -0.710000000     1.309000000
C     0.964000000    -1.529000000     2.488000000
O     2.114000000    -1.373000000     2.799000000
O     0.163000000    -2.125000000     3.188000000
