14
-85.16414
C     0.130000000     0.024000000     1.499000000
H     0.196000000     0.202000000     2.570000000
C     0.463000000     1.071000000     0.676000000
H     0.952000000     2.001000000     0.953000000
C     0.227000000     0.977000000    -0.697000000
H     0.394000000     1.809000000    -1.375000000
C    -0.310000000    -0.170000000    -1.225000000
H    -0.558000000    -0.190000000    -2.284000000
C    -0.662000000    -1.250000000    -0.413000000
H    -1.087000000    -2.177000000    -0.787000000
C    -0.367000000    -1.194000000     1.009000000
C    -0.508000000    -2.409000000     1.854000000
O    -0.430000000    -2.371000000     3.058000000
O    -0.710000000    -3.482000000     1.335000000
