14
-81.50795
C     0.703000000    -0.466000000     1.199000000
H     1.442000000    -0.729000000     1.951000000
C     1.185000000     0.468000000     0.283000000
H     2.157000000     0.928000000     0.437000000
C     0.337000000     0.885000000    -0.778000000
H     0.634000000     1.636000000    -1.505000000
C    -0.916000000     0.271000000    -0.938000000
H    -1.517000000     0.563000000    -1.796000000
C    -1.291000000    -0.727000000    -0.027000000
H    -2.213000000    -1.279000000    -0.193000000
C    -0.479000000    -1.111000000     1.009000000
C    -0.847000000    -2.237000000     1.913000000
O    -1.924000000    -2.785000000     1.837000000
O    -0.244000000    -2.312000000     2.945000000
