14
-79.94812
C    -0.897000000     0.446000000     1.047000000
H    -1.430000000     0.975000000     1.833000000
C     0.076000000     1.206000000     0.423000000
H     0.264000000     2.198000000     0.827000000
C     0.879000000     0.666000000    -0.574000000
H     1.663000000     1.245000000    -1.126000000
C     0.629000000    -0.585000000    -1.033000000
H     1.207000000    -0.979000000    -1.865000000
C    -0.218000000    -1.455000000    -0.257000000
H    -0.471000000    -2.436000000    -0.651000000
C    -1.070000000    -0.925000000     0.764000000
C    -1.998000000    -1.733000000     1.571000000
O    -2.594000000    -1.315000000     2.563000000
O    -2.300000000    -2.833000000     1.194000000
