14
-87.07149
C    -0.425000000     0.801000000     1.222000000
H    -0.628000000     1.556000000     1.977000000
C     0.202000000     1.259000000     0.069000000
H     0.458000000     2.315000000     0.074000000
C     0.646000000     0.382000000    -0.943000000
H     0.971000000     0.816000000    -1.847000000
C     0.395000000    -0.965000000    -0.851000000
H     0.645000000    -1.639000000    -1.666000000
C    -0.266000000    -1.450000000     0.287000000
H    -0.499000000    -2.512000000     0.286000000
C    -0.709000000    -0.592000000     1.299000000
C    -1.536000000    -1.050000000     2.476000000
O    -2.212000000    -0.239000000     3.078000000
O    -1.758000000    -2.245000000     2.666000000
