14
-80.62227
C    -1.165000000     0.625000000     0.604000000
H    -1.892000000     1.085000000     1.269000000
C    -0.049000000     1.352000000     0.094000000
H    -0.016000000     2.426000000    -0.074000000
C     0.989000000     0.617000000    -0.433000000
H     1.903000000     1.094000000    -0.879000000
C     0.876000000    -0.789000000    -0.658000000
H     1.689000000    -1.321000000    -1.147000000
C    -0.224000000    -1.494000000    -0.090000000
H    -0.387000000    -2.568000000    -0.072000000
C    -1.256000000    -0.786000000     0.498000000
C    -2.476000000    -1.462000000     1.042000000
O    -3.313000000    -0.802000000     1.579000000
O    -2.744000000    -2.632000000     0.818000000
