14
-85.34419
C     1.162000000    -0.871000000     0.527000000
H     2.013000000    -1.505000000     0.760000000
C     1.253000000     0.139000000    -0.496000000
H     2.184000000     0.406000000    -0.990000000
C     0.068000000     0.815000000    -0.949000000
H     0.120000000     1.509000000    -1.766000000
C    -1.083000000     0.628000000    -0.278000000
H    -2.028000000     1.026000000    -0.638000000
C    -1.184000000    -0.305000000     0.746000000
H    -2.162000000    -0.567000000     1.141000000
C    -0.074000000    -1.047000000     1.210000000
C    -0.255000000    -2.131000000     2.226000000
O    -1.408000000    -2.401000000     2.542000000
O     0.663000000    -2.585000000     2.857000000
