14
-81.20846
C    -0.036000000    -0.937000000     1.148000000
H    -0.273000000    -1.536000000     2.024000000
C     0.309000000     0.404000000     1.243000000
H     0.422000000     0.836000000     2.234000000
C     0.235000000     1.179000000     0.126000000
H     0.398000000     2.211000000     0.356000000
C     0.108000000     0.620000000    -1.144000000
H     0.007000000     1.314000000    -1.975000000
C    -0.184000000    -0.729000000    -1.249000000
H    -0.582000000    -1.072000000    -2.200000000
C    -0.244000000    -1.576000000    -0.107000000
C    -0.510000000    -3.062000000    -0.197000000
O    -0.888000000    -3.682000000     0.770000000
O    -0.680000000    -3.556000000    -1.303000000
