14
-83.58615
C    -0.380000000    -0.317000000     1.345000000
H    -0.596000000    -0.514000000     2.392000000
C     0.401000000     0.799000000     1.054000000
H     0.617000000     1.593000000     1.764000000
C     0.697000000     0.932000000    -0.307000000
H     1.251000000     1.761000000    -0.789000000
C     0.149000000     0.092000000    -1.253000000
H     0.429000000     0.205000000    -2.297000000
C    -0.646000000    -0.981000000    -0.925000000
H    -1.046000000    -1.606000000    -1.719000000
C    -0.910000000    -1.190000000     0.410000000
C    -1.690000000    -2.423000000     0.946000000
O    -2.102000000    -2.371000000     2.033000000
O    -1.821000000    -3.387000000     0.218000000
