14
-84.51701
C    -0.683000000    -0.298000000     1.309000000
H    -0.970000000    -0.551000000     2.327000000
C     0.291000000     0.712000000     1.136000000
H     0.520000000     1.438000000     1.913000000
C     0.856000000     0.955000000    -0.148000000
H     1.468000000     1.793000000    -0.418000000
C     0.388000000     0.150000000    -1.187000000
H     0.655000000     0.443000000    -2.199000000
C    -0.594000000    -0.795000000    -1.000000000
H    -1.019000000    -1.329000000    -1.846000000
C    -1.235000000    -1.046000000     0.246000000
C    -2.203000000    -2.179000000     0.403000000
O    -2.408000000    -2.621000000     1.505000000
O    -2.802000000    -2.637000000    -0.546000000
