14
-89.09608
C     0.504000000    -0.474000000     1.326000000
H     0.807000000    -0.754000000     2.332000000
C     0.347000000     0.832000000     0.912000000
H     0.550000000     1.623000000     1.628000000
C    -0.036000000     1.194000000    -0.398000000
H    -0.092000000     2.233000000    -0.802000000
C    -0.354000000     0.174000000    -1.270000000
H    -0.728000000     0.364000000    -2.272000000
C    -0.195000000    -1.171000000    -0.851000000
H    -0.417000000    -1.945000000    -1.581000000
C     0.186000000    -1.480000000     0.435000000
C     0.229000000    -2.867000000     0.994000000
O     0.823000000    -3.168000000     2.024000000
O    -0.382000000    -3.723000000     0.400000000
