14
-82.47840
C     0.036000000    -1.167000000     0.969000000
H     0.078000000    -1.870000000     1.797000000
C    -0.749000000    -0.019000000     1.088000000
H    -1.555000000     0.017000000     1.816000000
C    -0.745000000     0.943000000     0.073000000
H    -1.481000000     1.725000000    -0.060000000
C     0.058000000     0.728000000    -1.012000000
H    -0.041000000     1.436000000    -1.831000000
C     0.944000000    -0.322000000    -1.028000000
H     1.559000000    -0.327000000    -1.924000000
C     0.971000000    -1.306000000    -0.062000000
C     1.972000000    -2.430000000     0.013000000
O     2.106000000    -3.105000000     0.982000000
O     2.725000000    -2.574000000    -0.936000000
