14
-85.99513
C    -0.031000000    -0.048000000     1.533000000
H    -0.208000000    -0.067000000     2.605000000
C    -0.265000000     1.078000000     0.752000000
H    -0.492000000     2.017000000     1.251000000
C    -0.082000000     1.032000000    -0.618000000
H    -0.043000000     1.960000000    -1.137000000
C     0.093000000    -0.151000000    -1.278000000
H     0.073000000    -0.181000000    -2.365000000
C     0.290000000    -1.314000000    -0.561000000
H     0.423000000    -2.270000000    -1.061000000
C     0.319000000    -1.292000000     0.832000000
C     0.393000000    -2.569000000     1.606000000
O    -0.026000000    -2.635000000     2.742000000
O     1.006000000    -3.500000000     1.138000000
