14
-88.93251
C     0.686000000    -1.114000000     0.607000000
H     1.289000000    -1.871000000     1.102000000
C     1.277000000    -0.163000000    -0.181000000
H     2.341000000    -0.290000000    -0.363000000
C     0.510000000     0.926000000    -0.715000000
H     0.955000000     1.723000000    -1.254000000
C    -0.853000000     0.936000000    -0.413000000
H    -1.455000000     1.745000000    -0.818000000
C    -1.430000000    -0.116000000     0.309000000
H    -2.485000000    -0.014000000     0.549000000
C    -0.674000000    -1.167000000     0.839000000
C    -1.254000000    -2.271000000     1.759000000
O    -2.395000000    -2.236000000     2.208000000
O    -0.535000000    -3.172000000     2.164000000
