14
-86.05112
C    -0.783000000    -0.647000000     1.113000000
H    -1.358000000    -0.977000000     1.974000000
C    -0.871000000     0.702000000     0.678000000
H    -1.462000000     1.394000000     1.274000000
C    -0.069000000     1.174000000    -0.356000000
H    -0.003000000     2.291000000    -0.536000000
C     0.774000000     0.266000000    -1.086000000
H     1.260000000     0.704000000    -1.955000000
C     0.763000000    -1.068000000    -0.685000000
H     1.331000000    -1.804000000    -1.249000000
C     0.002000000    -1.536000000     0.420000000
C     0.257000000    -2.929000000     0.903000000
O    -0.563000000    -3.418000000     1.643000000
O     1.100000000    -3.685000000     0.414000000
