14
-88.07013
C    -0.617000000    -1.050000000     0.965000000
H    -1.148000000    -1.688000000     1.667000000
C    -0.576000000     0.371000000     1.216000000
H    -1.095000000     0.736000000     2.099000000
C     0.014000000     1.194000000     0.262000000
H    -0.122000000     2.234000000     0.267000000
C     0.600000000     0.669000000    -0.877000000
H     0.946000000     1.366000000    -1.636000000
C     0.596000000    -0.692000000    -1.174000000
H     1.099000000    -1.009000000    -2.084000000
C    -0.026000000    -1.534000000    -0.230000000
C     0.006000000    -3.001000000    -0.491000000
O    -0.606000000    -3.879000000     0.186000000
O     0.799000000    -3.374000000    -1.348000000
