14
-81.46115
C     0.181000000    -0.183000000     1.473000000
H     0.194000000    -0.543000000     2.498000000
C    -0.991000000     0.317000000     0.856000000
H    -1.824000000     0.792000000     1.368000000
C    -1.021000000     0.489000000    -0.509000000
H    -1.816000000     0.969000000    -1.032000000
C     0.096000000    -0.008000000    -1.320000000
H     0.045000000     0.054000000    -2.404000000
C     1.187000000    -0.549000000    -0.740000000
H     2.108000000    -0.823000000    -1.247000000
C     1.211000000    -0.675000000     0.650000000
C     2.391000000    -1.358000000     1.317000000
O     2.587000000    -1.397000000     2.531000000
O     3.294000000    -1.901000000     0.665000000
