14
-86.52655
C     0.012000000     0.145000000     1.482000000
H    -0.118000000     0.325000000     2.547000000
C    -0.744000000     0.863000000     0.571000000
H    -1.391000000     1.620000000     1.008000000
C    -0.724000000     0.591000000    -0.783000000
H    -1.260000000     1.144000000    -1.445000000
C     0.242000000    -0.259000000    -1.264000000
H     0.272000000    -0.350000000    -2.347000000
C     1.067000000    -0.967000000    -0.415000000
H     1.747000000    -1.690000000    -0.860000000
C     1.029000000    -0.714000000     0.987000000
C     1.887000000    -1.524000000     1.945000000
O     1.862000000    -1.265000000     3.159000000
O     2.541000000    -2.454000000     1.563000000
