14
-83.16619
C     0.562000000     1.133000000     0.693000000
H     1.075000000     2.017000000     1.061000000
C     0.134000000     1.166000000    -0.641000000
H     0.214000000     2.001000000    -1.332000000
C    -0.479000000     0.005000000    -1.161000000
H    -0.860000000    -0.058000000    -2.155000000
C    -0.390000000    -1.157000000    -0.358000000
H    -0.750000000    -2.071000000    -0.823000000
C     0.016000000    -1.172000000     0.997000000
H     0.137000000    -2.099000000     1.551000000
C     0.435000000     0.028000000     1.521000000
C     0.913000000     0.050000000     2.959000000
O     1.471000000     1.004000000     3.414000000
O     0.828000000    -0.921000000     3.677000000
