14
-85.13820
C    -0.942000000     0.315000000     1.096000000
H    -1.565000000     0.603000000     1.940000000
C    -0.944000000     0.994000000    -0.106000000
H    -1.549000000     1.877000000    -0.301000000
C     0.005000000     0.594000000    -1.035000000
H     0.066000000     1.062000000    -1.978000000
C     0.838000000    -0.491000000    -0.855000000
H     1.503000000    -0.815000000    -1.652000000
C     0.841000000    -1.136000000     0.381000000
H     1.511000000    -1.969000000     0.581000000
C    -0.112000000    -0.818000000     1.348000000
C    -0.088000000    -1.585000000     2.638000000
O    -1.021000000    -1.591000000     3.475000000
O     0.871000000    -2.221000000     2.905000000
