14
-89.80163
C     1.006000000    -0.952000000     0.577000000
H     1.767000000    -1.691000000     0.818000000
C     1.351000000     0.192000000    -0.099000000
H     2.399000000     0.413000000    -0.284000000
C     0.320000000     1.042000000    -0.577000000
H     0.526000000     1.987000000    -1.038000000
C    -1.048000000     0.783000000    -0.228000000
H    -1.876000000     1.439000000    -0.482000000
C    -1.356000000    -0.352000000     0.467000000
H    -2.399000000    -0.499000000     0.733000000
C    -0.375000000    -1.269000000     0.790000000
C    -0.766000000    -2.619000000     1.431000000
O    -1.976000000    -2.774000000     1.692000000
O     0.057000000    -3.471000000     1.460000000
