14
-80.13307
C     0.337000000     1.394000000     0.570000000
H     0.401000000     2.343000000     1.096000000
C    -0.281000000     1.190000000    -0.668000000
H    -0.670000000     2.068000000    -1.178000000
C    -0.422000000    -0.100000000    -1.176000000
H    -0.921000000    -0.206000000    -2.140000000
C     0.051000000    -1.155000000    -0.425000000
H    -0.089000000    -2.158000000    -0.820000000
C     0.658000000    -1.032000000     0.775000000
H     0.933000000    -1.987000000     1.214000000
C     0.891000000     0.282000000     1.266000000
C     1.423000000     0.408000000     2.669000000
O     1.412000000     1.496000000     3.198000000
O     1.729000000    -0.528000000     3.312000000
