14
-79.63958
C    -0.541000000     0.955000000     1.032000000
H    -0.894000000     1.749000000     1.686000000
C    -0.653000000     1.071000000    -0.360000000
H    -1.049000000     1.967000000    -0.831000000
C    -0.133000000     0.157000000    -1.257000000
H    -0.153000000     0.343000000    -2.341000000
C     0.546000000    -0.907000000    -0.647000000
H     0.919000000    -1.709000000    -1.279000000
C     0.803000000    -1.007000000     0.720000000
H     1.286000000    -1.925000000     1.044000000
C     0.228000000    -0.105000000     1.568000000
C     0.329000000    -0.244000000     3.053000000
O    -0.136000000     0.637000000     3.735000000
O     0.922000000    -1.096000000     3.660000000
