14
-86.56635
C     0.445000000     0.559000000     1.351000000
H     0.598000000     1.037000000     2.316000000
C     0.128000000     1.306000000     0.157000000
H     0.036000000     2.389000000     0.162000000
C    -0.198000000     0.674000000    -1.043000000
H    -0.375000000     1.285000000    -1.979000000
C    -0.320000000    -0.743000000    -1.037000000
H    -0.651000000    -1.294000000    -1.914000000
C     0.039000000    -1.440000000     0.139000000
H     0.038000000    -2.525000000     0.213000000
C     0.410000000    -0.787000000     1.283000000
C     0.676000000    -1.558000000     2.541000000
O     0.410000000    -1.010000000     3.574000000
O     0.959000000    -2.783000000     2.534000000
