14
-84.23361
C    -0.122000000     1.238000000     0.751000000
H    -0.528000000     2.089000000     1.292000000
C    -0.989000000     0.855000000    -0.280000000
H    -1.987000000     1.263000000    -0.416000000
C    -0.749000000    -0.366000000    -0.958000000
H    -1.467000000    -0.839000000    -1.582000000
C     0.386000000    -1.124000000    -0.622000000
H     0.730000000    -2.068000000    -1.037000000
C     1.210000000    -0.667000000     0.416000000
H     2.042000000    -1.303000000     0.706000000
C     1.072000000     0.567000000     1.050000000
C     2.022000000     0.951000000     2.152000000
O     1.652000000     1.860000000     2.896000000
O     2.881000000     0.150000000     2.449000000
