14
-86.91250
C    -0.346000000     1.133000000     0.905000000
H    -0.634000000     1.805000000     1.709000000
C    -0.939000000    -0.109000000     0.845000000
H    -1.826000000    -0.246000000     1.457000000
C    -0.641000000    -1.074000000    -0.118000000
H    -1.207000000    -2.012000000    -0.193000000
C     0.358000000    -0.824000000    -1.047000000
H     0.594000000    -1.579000000    -1.793000000
C     1.044000000     0.438000000    -0.867000000
H     1.864000000     0.609000000    -1.560000000
C     0.718000000     1.435000000     0.077000000
C     1.631000000     2.652000000     0.201000000
O     1.197000000     3.664000000     0.717000000
O     2.799000000     2.623000000    -0.154000000
