14
-81.27468
C     1.292000000    -0.788000000    -0.070000000
H     2.323000000    -1.118000000     0.026000000
C     1.140000000     0.465000000    -0.645000000
H     1.922000000     0.910000000    -1.255000000
C    -0.107000000     1.089000000    -0.558000000
H    -0.179000000     2.117000000    -0.995000000
C    -1.143000000     0.381000000     0.055000000
H    -2.100000000     0.881000000    -0.078000000
C    -0.960000000    -0.831000000     0.690000000
H    -1.824000000    -1.274000000     1.181000000
C     0.265000000    -1.391000000     0.672000000
C     0.472000000    -2.641000000     1.458000000
O    -0.462000000    -3.016000000     2.109000000
O     1.503000000    -3.250000000     1.473000000
