14
-86.65933
C     0.179000000     0.602000000     1.262000000
H     0.225000000     0.881000000     2.312000000
C    -0.654000000    -0.398000000     1.019000000
H    -1.195000000    -0.893000000     1.821000000
C    -0.745000000    -0.938000000    -0.266000000
H    -1.361000000    -1.834000000    -0.472000000
C    -0.078000000    -0.279000000    -1.333000000
H    -0.251000000    -0.681000000    -2.328000000
C     0.726000000     0.786000000    -1.071000000
H     1.363000000     1.272000000    -1.806000000
C     0.889000000     1.281000000     0.234000000
C     1.889000000     2.447000000     0.628000000
O     2.100000000     2.660000000     1.792000000
O     2.567000000     2.855000000    -0.305000000
