14
-85.89322
C    -1.161000000     0.827000000     0.451000000
H    -2.076000000     1.397000000     0.587000000
C    -1.284000000    -0.511000000     0.207000000
H    -2.254000000    -0.991000000     0.304000000
C    -0.092000000    -1.219000000    -0.135000000
H    -0.137000000    -2.328000000    -0.392000000
C     1.105000000    -0.613000000    -0.278000000
H     1.987000000    -1.183000000    -0.561000000
C     1.148000000     0.775000000    -0.073000000
H     2.069000000     1.351000000    -0.096000000
C     0.042000000     1.542000000     0.268000000
C     0.161000000     3.036000000     0.466000000
O    -0.812000000     3.796000000     0.506000000
O     1.256000000     3.579000000     0.345000000
