14
-90.68524
C    -1.514000000     0.043000000    -0.278000000
H    -2.538000000    -0.096000000    -0.617000000
C    -0.657000000    -1.110000000    -0.200000000
H    -1.024000000    -2.117000000    -0.383000000
C     0.733000000    -1.010000000     0.051000000
H     1.292000000    -1.954000000    -0.037000000
C     1.260000000     0.265000000     0.227000000
H     2.338000000     0.267000000     0.364000000
C     0.440000000     1.408000000     0.276000000
H     0.865000000     2.363000000     0.573000000
C    -0.964000000     1.304000000    -0.015000000
C    -1.871000000     2.493000000     0.099000000
O    -3.066000000     2.327000000     0.086000000
O    -1.344000000     3.610000000     0.258000000
