14
-86.56899
C    -1.318000000     0.459000000     0.417000000
H    -2.311000000     0.831000000     0.657000000
C    -0.848000000    -0.799000000     0.587000000
H    -1.359000000    -1.553000000     1.181000000
C     0.438000000    -1.135000000     0.110000000
H     0.760000000    -2.155000000     0.273000000
C     1.175000000    -0.254000000    -0.692000000
H     2.077000000    -0.624000000    -1.173000000
C     0.741000000     1.053000000    -0.809000000
H     1.269000000     1.834000000    -1.350000000
C    -0.483000000     1.421000000    -0.228000000
C    -0.937000000     2.857000000    -0.210000000
O    -1.897000000     3.131000000     0.484000000
O    -0.238000000     3.746000000    -0.620000000
