14
-90.16386
C     1.019000000    -1.049000000    -0.351000000
H     1.683000000    -1.846000000    -0.674000000
C     0.827000000     0.141000000    -1.060000000
H     1.359000000     0.330000000    -1.989000000
C    -0.170000000     1.036000000    -0.637000000
H    -0.339000000     2.014000000    -1.196000000
C    -0.874000000     0.800000000     0.541000000
H    -1.564000000     1.544000000     0.930000000
C    -0.640000000    -0.350000000     1.246000000
H    -1.250000000    -0.626000000     2.102000000
C     0.291000000    -1.310000000     0.841000000
C     0.351000000    -2.637000000     1.543000000
O    -0.493000000    -2.890000000     2.391000000
O     1.129000000    -3.510000000     1.222000000
