14
-85.24275
C    -1.280000000     0.483000000    -0.469000000
H    -2.216000000     0.849000000    -0.882000000
C    -0.749000000    -0.722000000    -0.738000000
H    -1.382000000    -1.385000000    -1.322000000
C     0.468000000    -1.128000000    -0.181000000
H     0.859000000    -2.101000000    -0.543000000
C     1.215000000    -0.223000000     0.500000000
H     2.227000000    -0.536000000     0.745000000
C     0.730000000     1.051000000     0.740000000
H     1.415000000     1.741000000     1.227000000
C    -0.532000000     1.426000000     0.288000000
C    -1.105000000     2.804000000     0.596000000
O    -2.316000000     3.001000000     0.476000000
O    -0.405000000     3.675000000     0.983000000
