14
-87.54544
C    -1.186000000     0.435000000     0.783000000
H    -2.154000000     0.522000000     1.269000000
C    -0.608000000    -0.840000000     0.782000000
H    -1.150000000    -1.637000000     1.284000000
C     0.473000000    -1.126000000     0.046000000
H     0.768000000    -2.145000000    -0.136000000
C     1.126000000    -0.123000000    -0.633000000
H     2.115000000    -0.234000000    -1.069000000
C     0.649000000     1.159000000    -0.565000000
H     1.213000000     1.945000000    -1.060000000
C    -0.577000000     1.476000000     0.032000000
C    -1.287000000     2.864000000     0.027000000
O    -2.425000000     2.947000000     0.499000000
O    -0.803000000     3.727000000    -0.708000000
