14
-77.82168
C    -0.927000000     1.129000000     0.449000000
H    -1.582000000     1.882000000     0.878000000
C    -0.978000000    -0.197000000     0.902000000
H    -1.728000000    -0.483000000     1.636000000
C    -0.073000000    -1.154000000     0.389000000
H    -0.167000000    -2.188000000     0.710000000
C     0.878000000    -0.797000000    -0.533000000
H     1.469000000    -1.514000000    -1.098000000
C     0.887000000     0.569000000    -0.995000000
H     1.784000000     0.801000000    -1.564000000
C     0.031000000     1.511000000    -0.486000000
C     0.100000000     2.886000000    -0.924000000
O    -0.510000000     3.789000000    -0.388000000
O     0.820000000     3.247000000    -1.806000000
