14
-84.15502
C     0.413000000     1.069000000    -0.947000000
H     0.673000000     1.700000000    -1.793000000
C     0.430000000    -0.334000000    -1.178000000
H     0.693000000    -0.765000000    -2.140000000
C     0.178000000    -1.246000000    -0.168000000
H     0.228000000    -2.359000000    -0.211000000
C    -0.146000000    -0.723000000     1.064000000
H    -0.467000000    -1.370000000     1.876000000
C    -0.283000000     0.691000000     1.234000000
H    -0.755000000     1.093000000     2.127000000
C    -0.105000000     1.583000000     0.251000000
C    -0.451000000     3.058000000     0.467000000
O    -0.800000000     3.688000000    -0.537000000
O    -0.675000000     3.553000000     1.582000000
