14
-79.31964
C    -1.004000000     0.809000000    -0.806000000
H    -1.701000000     1.479000000    -1.304000000
C    -1.033000000    -0.537000000    -0.818000000
H    -1.761000000    -1.120000000    -1.377000000
C    -0.187000000    -1.184000000     0.066000000
H    -0.089000000    -2.212000000     0.158000000
C     0.737000000    -0.557000000     0.866000000
H     1.444000000    -1.158000000     1.433000000
C     0.864000000     0.827000000     0.752000000
H     1.692000000     1.275000000     1.295000000
C     0.079000000     1.493000000    -0.170000000
C     0.259000000     3.003000000    -0.185000000
O    -0.468000000     3.710000000    -0.830000000
O     1.256000000     3.537000000     0.307000000
