14
-90.15183
C    -0.615000000     1.056000000    -0.802000000
H    -1.014000000     1.769000000    -1.518000000
C    -0.387000000    -0.253000000    -1.240000000
H    -0.650000000    -0.538000000    -2.255000000
C     0.254000000    -1.145000000    -0.389000000
H     0.523000000    -2.165000000    -0.752000000
C     0.575000000    -0.783000000     0.957000000
H     0.984000000    -1.440000000     1.719000000
C     0.349000000     0.567000000     1.381000000
H     0.615000000     0.812000000     2.406000000
C    -0.244000000     1.513000000     0.494000000
C    -0.556000000     2.896000000     0.895000000
O    -1.037000000     3.734000000     0.155000000
O    -0.203000000     3.225000000     2.051000000
