14
-83.18399
C    -0.631000000     1.193000000    -0.597000000
H    -1.156000000     1.970000000    -1.146000000
C    -0.777000000    -0.083000000    -1.078000000
H    -1.486000000    -0.269000000    -1.880000000
C    -0.149000000    -1.123000000    -0.435000000
H    -0.294000000    -2.154000000    -0.801000000
C     0.538000000    -0.936000000     0.792000000
H     1.033000000    -1.744000000     1.324000000
C     0.757000000     0.352000000     1.281000000
H     1.400000000     0.548000000     2.135000000
C     0.158000000     1.452000000     0.552000000
C     0.320000000     2.824000000     1.031000000
O    -0.036000000     3.828000000     0.428000000
O     0.756000000     2.920000000     2.133000000
