14
-84.76155
C    -0.224000000     1.414000000    -0.082000000
H    -0.480000000     2.455000000    -0.264000000
C    -0.840000000     0.471000000    -0.873000000
H    -1.417000000     0.736000000    -1.755000000
C    -0.606000000    -0.850000000    -0.683000000
H    -1.218000000    -1.609000000    -1.281000000
C     0.341000000    -1.226000000     0.288000000
H     0.590000000    -2.275000000     0.426000000
C     0.965000000    -0.303000000     1.131000000
H     1.733000000    -0.573000000     1.852000000
C     0.673000000     1.051000000     0.962000000
C     1.367000000     2.131000000     1.687000000
O     1.648000000     3.169000000     1.128000000
O     1.841000000     1.903000000     2.777000000
