14
-89.81542
C    -0.199000000     1.429000000     0.288000000
H    -0.234000000     2.514000000     0.326000000
C    -0.770000000     0.743000000    -0.763000000
H    -1.338000000     1.278000000    -1.520000000
C    -0.526000000    -0.633000000    -0.893000000
H    -0.872000000    -1.294000000    -1.678000000
C     0.214000000    -1.286000000     0.097000000
H     0.311000000    -2.361000000    -0.030000000
C     0.702000000    -0.671000000     1.215000000
H     1.246000000    -1.198000000     1.995000000
C     0.559000000     0.786000000     1.239000000
C     1.278000000     1.605000000     2.294000000
O     1.490000000     2.804000000     2.131000000
O     1.575000000     1.089000000     3.372000000
