14
-88.47757
C     0.462000000     1.289000000     0.520000000
H     0.924000000     2.215000000     0.855000000
C     0.539000000     0.880000000    -0.812000000
H     0.961000000     1.482000000    -1.613000000
C    -0.029000000    -0.352000000    -1.205000000
H     0.118000000    -0.742000000    -2.217000000
C    -0.500000000    -1.210000000    -0.211000000
H    -0.991000000    -2.148000000    -0.460000000
C    -0.715000000    -0.716000000     1.081000000
H    -1.181000000    -1.360000000     1.822000000
C    -0.172000000     0.523000000     1.500000000
C     0.009000000     0.844000000     2.955000000
O     0.584000000     1.898000000     3.297000000
O    -0.501000000     0.163000000     3.827000000
