14
-82.70836
C     1.025000000     1.099000000     0.134000000
H     1.776000000     1.876000000     0.023000000
C     0.452000000     0.657000000    -1.038000000
H     0.867000000     1.089000000    -1.945000000
C    -0.502000000    -0.354000000    -1.062000000
H    -0.980000000    -0.712000000    -2.011000000
C    -0.851000000    -0.997000000     0.092000000
H    -1.698000000    -1.675000000     0.020000000
C    -0.209000000    -0.630000000     1.297000000
H    -0.550000000    -1.126000000     2.202000000
C     0.733000000     0.416000000     1.338000000
C     1.209000000     0.773000000     2.714000000
O     2.033000000     1.689000000     2.855000000
O     1.056000000     0.077000000     3.702000000
