14
-84.79585
C     0.160000000     0.456000000     1.386000000
H     0.355000000     0.912000000     2.353000000
C     0.157000000     1.313000000     0.226000000
H     0.289000000     2.382000000     0.368000000
C     0.057000000     0.692000000    -1.063000000
H     0.137000000     1.289000000    -2.014000000
C    -0.219000000    -0.672000000    -1.121000000
H    -0.229000000    -1.142000000    -2.100000000
C    -0.446000000    -1.418000000     0.030000000
H    -0.517000000    -2.503000000     0.005000000
C    -0.192000000    -0.903000000     1.285000000
C    -0.117000000    -1.757000000     2.521000000
O     0.261000000    -1.293000000     3.548000000
O    -0.649000000    -2.861000000     2.486000000
