14
-88.32343
C    -0.363000000     0.807000000     1.190000000
H    -0.686000000     1.489000000     1.974000000
C    -0.435000000     1.199000000    -0.172000000
H    -0.764000000     2.228000000    -0.300000000
C    -0.186000000     0.314000000    -1.196000000
H    -0.165000000     0.584000000    -2.234000000
C     0.491000000    -0.839000000    -0.848000000
H     0.885000000    -1.432000000    -1.670000000
C     0.556000000    -1.264000000     0.500000000
H     1.055000000    -2.221000000     0.630000000
C     0.194000000    -0.392000000     1.512000000
C     0.385000000    -0.693000000     2.996000000
O     0.522000000     0.260000000     3.779000000
O     0.483000000    -1.868000000     3.381000000
