14
-86.38647
C     0.060000000    -1.346000000     0.628000000
H     0.239000000    -2.383000000     0.901000000
C     1.122000000    -0.586000000     0.084000000
H     2.129000000    -0.975000000     0.205000000
C     0.928000000     0.637000000    -0.444000000
H     1.866000000     1.136000000    -0.848000000
C    -0.361000000     1.180000000    -0.572000000
H    -0.495000000     2.198000000    -0.929000000
C    -1.417000000     0.447000000    -0.046000000
H    -2.372000000     0.961000000    -0.122000000
C    -1.247000000    -0.812000000     0.535000000
C    -2.446000000    -1.601000000     1.011000000
O    -2.286000000    -2.657000000     1.649000000
O    -3.579000000    -1.241000000     0.827000000
