14
-84.49088
C     0.508000000    -0.424000000     1.315000000
H     0.955000000    -1.056000000     2.078000000
C     1.250000000    -0.069000000     0.205000000
H     2.327000000    -0.214000000     0.202000000
C     0.633000000     0.452000000    -0.924000000
H     1.190000000     0.786000000    -1.821000000
C    -0.718000000     0.450000000    -1.063000000
H    -1.202000000     0.857000000    -1.947000000
C    -1.451000000     0.023000000     0.012000000
H    -2.529000000    -0.097000000    -0.062000000
C    -0.899000000    -0.483000000     1.206000000
C    -1.583000000    -1.148000000     2.360000000
O    -0.968000000    -1.298000000     3.414000000
O    -2.716000000    -1.520000000     2.215000000
