14
-92.74807
C     1.073000000    -0.814000000     0.504000000
H     1.865000000    -1.328000000     1.044000000
C     1.234000000     0.356000000    -0.255000000
H     2.224000000     0.749000000    -0.470000000
C     0.087000000     1.069000000    -0.642000000
H     0.161000000     2.017000000    -1.184000000
C    -1.155000000     0.516000000    -0.416000000
H    -1.965000000     1.147000000    -0.774000000
C    -1.307000000    -0.712000000     0.229000000
H    -2.289000000    -1.100000000     0.485000000
C    -0.176000000    -1.423000000     0.674000000
C    -0.245000000    -2.820000000     1.354000000
O     0.662000000    -3.114000000     2.120000000
O    -1.194000000    -3.488000000     1.065000000
