14
-90.11516
C     0.925000000    -0.830000000     0.783000000
H     1.677000000    -1.476000000     1.228000000
C     1.332000000     0.356000000     0.136000000
H     2.365000000     0.693000000     0.172000000
C     0.338000000     1.041000000    -0.607000000
H     0.626000000     1.895000000    -1.225000000
C    -0.921000000     0.550000000    -0.612000000
H    -1.639000000     1.000000000    -1.294000000
C    -1.300000000    -0.533000000     0.151000000
H    -2.292000000    -0.960000000     0.020000000
C    -0.398000000    -1.283000000     0.818000000
C    -0.779000000    -2.556000000     1.629000000
O     0.021000000    -3.028000000     2.422000000
O    -1.836000000    -3.113000000     1.353000000
