14
-84.76378
C     0.382000000    -0.861000000     1.172000000
H     0.680000000    -1.509000000     1.993000000
C     1.287000000    -0.446000000     0.202000000
H     2.339000000    -0.652000000     0.379000000
C     0.789000000     0.315000000    -0.881000000
H     1.611000000     0.654000000    -1.502000000
C    -0.509000000     0.767000000    -0.932000000
H    -0.752000000     1.436000000    -1.753000000
C    -1.354000000     0.501000000     0.201000000
H    -2.379000000     0.865000000     0.205000000
C    -0.945000000    -0.421000000     1.210000000
C    -1.888000000    -0.887000000     2.241000000
O    -1.463000000    -1.387000000     3.281000000
O    -3.046000000    -0.692000000     2.050000000
