14
-87.72592
C     1.404000000    -0.321000000     0.283000000
H     2.430000000    -0.665000000     0.386000000
C     0.872000000    -0.275000000    -0.981000000
H     1.536000000    -0.382000000    -1.835000000
C    -0.460000000    -0.006000000    -1.131000000
H    -0.911000000    -0.075000000    -2.074000000
C    -1.242000000     0.373000000    -0.020000000
H    -2.305000000     0.509000000    -0.203000000
C    -0.721000000     0.391000000     1.241000000
H    -1.312000000     0.744000000     2.082000000
C     0.591000000    -0.093000000     1.467000000
C     1.200000000    -0.257000000     2.852000000
O     0.506000000     0.011000000     3.830000000
O     2.413000000    -0.446000000     3.025000000
