14
-84.43935
C    -0.772000000    -1.172000000    -0.436000000
H    -1.255000000    -2.136000000    -0.582000000
C     0.626000000    -1.136000000    -0.431000000
H     1.176000000    -2.067000000    -0.541000000
C     1.220000000     0.053000000    -0.110000000
H     2.335000000     0.051000000    -0.170000000
C     0.546000000     1.247000000     0.203000000
H     1.039000000     2.206000000     0.338000000
C    -0.849000000     1.126000000     0.283000000
H    -1.482000000     1.938000000     0.630000000
C    -1.575000000    -0.032000000    -0.087000000
C    -3.091000000    -0.175000000    -0.016000000
O    -3.596000000    -1.111000000    -0.601000000
O    -3.768000000     0.683000000     0.443000000
