14
-86.67395
C    -0.972000000     0.672000000    -0.896000000
H    -1.515000000     1.283000000    -1.613000000
C     0.145000000    -0.048000000    -1.301000000
H     0.455000000    -0.163000000    -2.336000000
C     0.928000000    -0.664000000    -0.355000000
H     1.789000000    -1.235000000    -0.630000000
C     0.681000000    -0.464000000     0.999000000
H     1.297000000    -0.935000000     1.760000000
C    -0.306000000     0.375000000     1.397000000
H    -0.449000000     0.406000000     2.474000000
C    -1.228000000     0.894000000     0.470000000
C    -2.416000000     1.658000000     0.826000000
O    -3.162000000     2.059000000    -0.036000000
O    -2.652000000     1.795000000     2.027000000
