14
-81.35214
C    -1.118000000     0.628000000    -0.821000000
H    -1.770000000     1.219000000    -1.459000000
C     0.046000000     0.050000000    -1.332000000
H     0.228000000    -0.083000000    -2.396000000
C     0.947000000    -0.553000000    -0.459000000
H     1.779000000    -1.160000000    -0.934000000
C     0.797000000    -0.528000000     0.924000000
H     1.575000000    -1.004000000     1.515000000
C    -0.285000000     0.067000000     1.491000000
H    -0.419000000     0.174000000     2.565000000
C    -1.267000000     0.738000000     0.621000000
C    -2.510000000     1.359000000     1.141000000
O    -3.144000000     2.164000000     0.507000000
O    -2.856000000     1.168000000     2.296000000
