14
-82.85210
C    -0.144000000     0.946000000    -1.130000000
H    -0.170000000     1.713000000    -1.900000000
C     0.999000000     0.647000000    -0.441000000
H     1.896000000     1.143000000    -0.804000000
C     0.989000000    -0.334000000     0.588000000
H     1.854000000    -0.612000000     1.191000000
C    -0.188000000    -0.927000000     0.952000000
H    -0.254000000    -1.597000000     1.806000000
C    -1.319000000    -0.649000000     0.247000000
H    -2.206000000    -1.157000000     0.616000000
C    -1.307000000     0.318000000    -0.792000000
C    -2.540000000     0.679000000    -1.424000000
O    -2.552000000     1.602000000    -2.270000000
O    -3.588000000     0.210000000    -1.058000000
