14
-83.63082
C    -0.473000000     1.158000000    -0.779000000
H    -0.653000000     1.903000000    -1.550000000
C     0.607000000     0.276000000    -1.117000000
H     1.135000000     0.430000000    -2.055000000
C     0.970000000    -0.779000000    -0.272000000
H     1.748000000    -1.468000000    -0.481000000
C     0.106000000    -1.027000000     0.862000000
H     0.271000000    -1.867000000     1.532000000
C    -0.964000000    -0.186000000     1.155000000
H    -1.564000000    -0.482000000     2.011000000
C    -1.257000000     0.920000000     0.326000000
C    -2.384000000     1.851000000     0.583000000
O    -2.756000000     2.634000000    -0.275000000
O    -2.719000000     2.063000000     1.719000000
