14
-82.12102
C     0.261000000     0.857000000    -1.156000000
H     0.554000000     1.412000000    -2.044000000
C     1.255000000     0.229000000    -0.433000000
H     2.306000000     0.308000000    -0.700000000
C     0.877000000    -0.688000000     0.587000000
H     1.550000000    -1.429000000     1.001000000
C    -0.469000000    -0.660000000     1.031000000
H    -0.736000000    -1.211000000     1.930000000
C    -1.417000000     0.163000000     0.483000000
H    -2.434000000     0.188000000     0.865000000
C    -1.062000000     0.915000000    -0.670000000
C    -2.135000000     1.710000000    -1.376000000
O    -1.960000000     1.974000000    -2.581000000
O    -3.031000000     2.205000000    -0.825000000
