14
-87.72735
C     0.764000000     0.643000000    -1.118000000
H     1.364000000     1.085000000    -1.910000000
C     1.049000000     0.717000000     0.232000000
H     1.740000000     1.466000000     0.609000000
C     0.252000000     0.094000000     1.207000000
H     0.458000000     0.272000000     2.307000000
C    -0.809000000    -0.699000000     0.875000000
H    -1.486000000    -1.054000000     1.647000000
C    -1.012000000    -0.933000000    -0.531000000
H    -1.822000000    -1.553000000    -0.906000000
C    -0.221000000    -0.248000000    -1.517000000
C    -0.517000000    -0.434000000    -3.020000000
O     0.084000000     0.309000000    -3.808000000
O    -1.148000000    -1.377000000    -3.396000000
