14
-84.40373
C    -0.221000000     0.120000000    -1.460000000
H    -0.339000000     0.467000000    -2.483000000
C     0.848000000     0.648000000    -0.765000000
H     1.618000000     1.213000000    -1.283000000
C     0.984000000     0.411000000     0.605000000
H     1.877000000     0.604000000     1.161000000
C    -0.001000000    -0.401000000     1.199000000
H     0.028000000    -0.577000000     2.271000000
C    -1.054000000    -0.920000000     0.507000000
H    -1.810000000    -1.507000000     1.023000000
C    -1.191000000    -0.658000000    -0.807000000
C    -2.306000000    -1.213000000    -1.624000000
O    -2.236000000    -0.976000000    -2.800000000
O    -3.177000000    -1.858000000    -1.136000000
