14
-84.36803
C     0.038000000     0.436000000    -1.406000000
H     0.066000000     0.796000000    -2.432000000
C     0.958000000     0.766000000    -0.381000000
H     1.809000000     1.362000000    -0.702000000
C     0.759000000     0.409000000     0.902000000
H     1.392000000     0.840000000     1.703000000
C    -0.306000000    -0.481000000     1.215000000
H    -0.511000000    -0.694000000     2.261000000
C    -1.185000000    -0.918000000     0.216000000
H    -2.014000000    -1.581000000     0.452000000
C    -1.053000000    -0.419000000    -1.103000000
C    -1.898000000    -0.754000000    -2.291000000
O    -1.490000000    -0.480000000    -3.370000000
O    -2.874000000    -1.478000000    -2.175000000
