14
-81.19760
C     0.156000000    -1.495000000    -0.175000000
H     0.171000000    -2.550000000    -0.435000000
C    -0.087000000    -0.538000000    -1.150000000
H    -0.301000000    -0.813000000    -2.180000000
C    -0.174000000     0.759000000    -0.878000000
H    -0.422000000     1.443000000    -1.654000000
C    -0.033000000     1.238000000     0.398000000
H    -0.174000000     2.311000000     0.500000000
C     0.197000000     0.339000000     1.456000000
H     0.257000000     0.741000000     2.464000000
C     0.209000000    -1.028000000     1.173000000
C     0.505000000    -1.934000000     2.313000000
O     0.498000000    -3.124000000     2.183000000
O     0.589000000    -1.455000000     3.422000000
