14
-80.06863
C     0.085000000    -1.190000000    -0.796000000
H     0.088000000    -1.990000000    -1.532000000
C    -0.181000000     0.107000000    -1.261000000
H    -0.383000000     0.370000000    -2.296000000
C    -0.257000000     1.157000000    -0.379000000
H    -0.487000000     2.109000000    -0.768000000
C     0.029000000     0.903000000     0.958000000
H     0.048000000     1.686000000     1.712000000
C     0.257000000    -0.428000000     1.423000000
H     0.226000000    -0.646000000     2.488000000
C     0.256000000    -1.458000000     0.539000000
C     0.571000000    -2.833000000     1.023000000
O     0.549000000    -3.719000000     0.243000000
O     0.758000000    -3.080000000     2.178000000
