14
-81.12004
C     0.623000000    -1.244000000    -0.612000000
H     1.260000000    -1.927000000    -1.168000000
C     0.130000000    -0.091000000    -1.312000000
H     0.374000000     0.083000000    -2.357000000
C    -0.519000000     0.978000000    -0.639000000
H    -0.857000000     1.801000000    -1.191000000
C    -0.684000000     0.852000000     0.801000000
H    -1.205000000     1.638000000     1.342000000
C    -0.224000000    -0.291000000     1.528000000
H    -0.282000000    -0.332000000     2.612000000
C     0.476000000    -1.324000000     0.787000000
C     1.214000000    -2.386000000     1.486000000
O     1.604000000    -3.370000000     0.867000000
O     1.166000000    -2.508000000     2.729000000
