14
-84.54589
C     0.925000000    -1.138000000     0.331000000
H     1.597000000    -1.969000000     0.527000000
C     0.271000000    -0.920000000    -0.913000000
H     0.430000000    -1.660000000    -1.692000000
C    -0.541000000     0.208000000    -1.076000000
H    -0.887000000     0.531000000    -2.089000000
C    -0.799000000     1.078000000    -0.043000000
H    -1.437000000     1.938000000    -0.230000000
C    -0.256000000     0.797000000     1.220000000
H    -0.489000000     1.410000000     2.087000000
C     0.636000000    -0.302000000     1.409000000
C     1.333000000    -0.450000000     2.703000000
O     2.524000000    -0.922000000     2.658000000
O     1.013000000     0.182000000     3.654000000
