14
-88.28268
C     0.843000000    -0.528000000    -1.067000000
H     1.484000000    -0.754000000    -1.915000000
C     0.408000000     0.842000000    -0.918000000
H     0.680000000     1.594000000    -1.654000000
C    -0.564000000     1.105000000     0.050000000
H    -1.157000000     2.050000000     0.157000000
C    -0.774000000     0.192000000     1.049000000
H    -1.428000000     0.550000000     1.840000000
C    -0.212000000    -1.075000000     1.014000000
H    -0.448000000    -1.772000000     1.815000000
C     0.551000000    -1.456000000    -0.095000000
C     1.264000000    -2.806000000    -0.169000000
O     1.810000000    -3.131000000    -1.197000000
O     1.352000000    -3.517000000     0.844000000
