14
-86.65142
C     1.375000000    -0.112000000     0.228000000
H     2.438000000     0.047000000     0.390000000
C     0.712000000     0.976000000    -0.260000000
H     1.282000000     1.826000000    -0.627000000
C    -0.656000000     0.967000000    -0.426000000
H    -1.127000000     1.833000000    -0.946000000
C    -1.341000000    -0.147000000     0.016000000
H    -2.419000000    -0.146000000    -0.121000000
C    -0.693000000    -1.316000000     0.498000000
H    -1.170000000    -2.242000000     0.810000000
C     0.736000000    -1.328000000     0.493000000
C     1.640000000    -2.390000000     1.061000000
O     2.801000000    -2.215000000     1.369000000
O     1.079000000    -3.493000000     1.039000000
