14
-88.95391
C     1.518000000    -0.034000000     0.246000000
H     2.596000000     0.069000000     0.331000000
C     0.773000000     1.087000000     0.210000000
H     1.149000000     2.105000000     0.262000000
C    -0.575000000     1.041000000    -0.047000000
H    -1.123000000     2.033000000     0.016000000
C    -1.279000000    -0.179000000    -0.205000000
H    -2.352000000    -0.146000000    -0.373000000
C    -0.553000000    -1.324000000    -0.152000000
H    -1.079000000    -2.255000000    -0.344000000
C     0.871000000    -1.309000000     0.101000000
C     1.649000000    -2.644000000     0.160000000
O     2.755000000    -2.649000000     0.740000000
O     1.153000000    -3.678000000    -0.338000000
