14
-91.92592
C     1.490000000     0.032000000    -0.066000000
H     2.559000000     0.187000000     0.054000000
C     0.666000000     0.835000000     0.830000000
H     1.154000000     1.372000000     1.639000000
C    -0.724000000     0.739000000     0.732000000
H    -1.422000000     1.214000000     1.488000000
C    -1.242000000    -0.072000000    -0.263000000
H    -2.323000000    -0.185000000    -0.304000000
C    -0.472000000    -0.883000000    -1.102000000
H    -0.975000000    -1.567000000    -1.781000000
C     0.927000000    -0.817000000    -1.020000000
C     1.809000000    -1.662000000    -1.923000000
O     2.998000000    -1.514000000    -1.826000000
O     1.269000000    -2.455000000    -2.708000000
