14
-80.97470
C     0.308000000     1.482000000     0.390000000
H     0.511000000     2.463000000     0.812000000
C    -0.607000000     0.591000000     1.055000000
H    -1.140000000     0.834000000     1.970000000
C    -0.847000000    -0.683000000     0.537000000
H    -1.503000000    -1.362000000     1.133000000
C    -0.133000000    -1.184000000    -0.523000000
H    -0.175000000    -2.228000000    -0.820000000
C     0.683000000    -0.328000000    -1.230000000
H     1.186000000    -0.829000000    -2.053000000
C     0.967000000     0.966000000    -0.772000000
C     1.970000000     1.815000000    -1.516000000
O     2.205000000     2.926000000    -1.157000000
O     2.752000000     1.331000000    -2.327000000
