14
-88.93026
C     1.399000000     0.428000000     0.300000000
H     2.427000000     0.765000000     0.409000000
C     0.808000000     0.372000000    -1.015000000
H     1.427000000     0.596000000    -1.880000000
C    -0.503000000    -0.058000000    -1.111000000
H    -0.996000000    -0.329000000    -2.117000000
C    -1.204000000    -0.380000000     0.041000000
H    -2.239000000    -0.625000000    -0.181000000
C    -0.658000000    -0.295000000     1.340000000
H    -1.190000000    -0.564000000     2.249000000
C     0.661000000     0.127000000     1.477000000
C     1.281000000     0.109000000     2.821000000
O     0.730000000    -0.303000000     3.813000000
O     2.481000000     0.505000000     2.832000000
