14
-81.57422
C     0.269000000     1.482000000     0.107000000
H     0.471000000     2.529000000     0.318000000
C    -0.785000000     0.769000000     0.691000000
H    -1.416000000     1.176000000     1.477000000
C    -0.930000000    -0.594000000     0.475000000
H    -1.751000000    -1.125000000     0.930000000
C    -0.108000000    -1.334000000    -0.348000000
H    -0.204000000    -2.386000000    -0.606000000
C     0.947000000    -0.591000000    -0.864000000
H     1.662000000    -1.074000000    -1.525000000
C     1.172000000     0.789000000    -0.709000000
C     2.357000000     1.521000000    -1.376000000
O     2.455000000     2.674000000    -1.439000000
O     3.180000000     0.815000000    -1.950000000
