14
-90.43019
C     0.317000000     1.395000000     0.521000000
H     0.487000000     2.334000000     1.042000000
C    -0.547000000     0.482000000     1.102000000
H    -1.035000000     0.708000000     2.047000000
C    -0.831000000    -0.778000000     0.500000000
H    -1.594000000    -1.475000000     0.910000000
C    -0.197000000    -1.053000000    -0.705000000
H    -0.412000000    -1.975000000    -1.241000000
C     0.784000000    -0.188000000    -1.204000000
H     1.379000000    -0.555000000    -2.036000000
C     0.980000000     1.103000000    -0.676000000
C     2.041000000     2.005000000    -1.293000000
O     1.946000000     3.249000000    -1.124000000
O     2.826000000     1.612000000    -2.179000000
