14
-74.06571
C     0.110000000     1.425000000     0.460000000
H    -0.007000000     2.390000000     0.946000000
C    -0.696000000     0.440000000     0.940000000
H    -1.392000000     0.680000000     1.740000000
C    -0.533000000    -0.869000000     0.599000000
H    -1.147000000    -1.650000000     1.142000000
C     0.381000000    -1.232000000    -0.342000000
H     0.480000000    -2.285000000    -0.590000000
C     1.029000000    -0.210000000    -1.049000000
H     1.658000000    -0.397000000    -1.916000000
C     0.849000000     1.112000000    -0.691000000
C     1.285000000     2.272000000    -1.539000000
O     0.971000000     3.385000000    -1.370000000
O     2.292000000     1.989000000    -2.179000000
