14
-82.60670
C    -0.001000000    -0.499000000     1.371000000
H    -0.085000000    -0.938000000     2.362000000
C    -0.869000000    -0.840000000     0.332000000
H    -1.732000000    -1.474000000     0.520000000
C    -0.872000000    -0.177000000    -0.821000000
H    -1.558000000    -0.291000000    -1.641000000
C     0.192000000     0.617000000    -1.223000000
H     0.307000000     1.046000000    -2.215000000
C     1.167000000     0.877000000    -0.214000000
H     2.028000000     1.479000000    -0.494000000
C     1.124000000     0.326000000     1.072000000
C     2.096000000     0.695000000     2.167000000
O     2.093000000     0.132000000     3.317000000
O     3.107000000     1.312000000     1.817000000
