14
-90.53898
C     1.434000000    -0.131000000     0.056000000
H     2.489000000    -0.382000000    -0.020000000
C     0.513000000    -1.040000000    -0.489000000
H     0.869000000    -1.984000000    -0.895000000
C    -0.804000000    -0.732000000    -0.585000000
H    -1.546000000    -1.385000000    -1.057000000
C    -1.293000000     0.443000000    -0.026000000
H    -2.358000000     0.657000000    -0.058000000
C    -0.368000000     1.240000000     0.623000000
H    -0.641000000     2.199000000     1.055000000
C     0.980000000     0.986000000     0.729000000
C     1.897000000     1.930000000     1.475000000
O     1.454000000     2.832000000     2.164000000
O     3.154000000     1.794000000     1.369000000
