14
-83.23988
C     0.808000000    -0.166000000     1.240000000
H     1.420000000    -0.455000000     2.092000000
C    -0.299000000    -0.972000000     0.843000000
H    -0.559000000    -1.894000000     1.357000000
C    -0.961000000    -0.716000000    -0.310000000
H    -1.806000000    -1.275000000    -0.700000000
C    -0.511000000     0.283000000    -1.111000000
H    -1.143000000     0.554000000    -1.952000000
C     0.608000000     1.033000000    -0.744000000
H     0.974000000     1.877000000    -1.323000000
C     1.281000000     0.846000000     0.384000000
C     2.351000000     1.819000000     0.837000000
O     3.257000000     1.490000000     1.596000000
O     2.320000000     3.007000000     0.430000000
