14
-86.96376
C     1.050000000    -0.044000000     1.007000000
H     1.837000000    -0.270000000     1.723000000
C     0.150000000    -1.035000000     0.757000000
H     0.170000000    -1.918000000     1.391000000
C    -0.791000000    -0.882000000    -0.220000000
H    -1.508000000    -1.669000000    -0.555000000
C    -0.827000000     0.268000000    -1.025000000
H    -1.540000000     0.343000000    -1.841000000
C     0.133000000     1.281000000    -0.734000000
H     0.140000000     2.123000000    -1.422000000
C     0.981000000     1.180000000     0.326000000
C     1.766000000     2.412000000     0.643000000
O     2.395000000     2.401000000     1.729000000
O     1.663000000     3.403000000    -0.021000000
