14
-83.73414
C     0.710000000     0.113000000     1.333000000
H     1.293000000     0.228000000     2.243000000
C     0.198000000    -1.041000000     0.773000000
H     0.419000000    -2.034000000     1.157000000
C    -0.588000000    -1.024000000    -0.358000000
H    -1.020000000    -1.923000000    -0.729000000
C    -0.861000000     0.158000000    -0.990000000
H    -1.465000000     0.146000000    -1.894000000
C    -0.227000000     1.298000000    -0.597000000
H    -0.335000000     2.220000000    -1.162000000
C     0.620000000     1.328000000     0.586000000
C     1.478000000     2.589000000     1.025000000
O     2.269000000     2.497000000     1.930000000
O     1.255000000     3.704000000     0.563000000
