14
-87.57330
C     0.938000000    -0.701000000     0.890000000
H     1.534000000    -1.340000000     1.537000000
C    -0.272000000    -1.260000000     0.438000000
H    -0.656000000    -2.242000000     0.700000000
C    -1.054000000    -0.463000000    -0.382000000
H    -2.046000000    -0.802000000    -0.642000000
C    -0.573000000     0.795000000    -0.898000000
H    -1.126000000     1.322000000    -1.672000000
C     0.669000000     1.271000000    -0.498000000
H     1.048000000     2.148000000    -1.016000000
C     1.397000000     0.557000000     0.483000000
C     2.704000000     1.215000000     1.067000000
O     3.259000000     0.807000000     2.057000000
O     3.116000000     2.192000000     0.505000000
