14
-80.57856
C    -0.220000000    -0.712000000     1.303000000
H    -0.469000000    -1.196000000     2.244000000
C    -1.002000000    -0.845000000     0.175000000
H    -1.789000000    -1.595000000     0.169000000
C    -0.711000000    -0.185000000    -0.993000000
H    -1.253000000    -0.355000000    -1.875000000
C     0.333000000     0.740000000    -0.987000000
H     0.567000000     1.345000000    -1.860000000
C     1.095000000     0.905000000     0.135000000
H     1.924000000     1.606000000     0.101000000
C     0.892000000     0.113000000     1.280000000
C     1.847000000     0.224000000     2.504000000
O     2.046000000    -0.616000000     3.315000000
O     2.633000000     1.134000000     2.480000000
