14
-86.14674
C    -0.436000000    -1.192000000     0.802000000
H    -0.573000000    -2.198000000     1.191000000
C    -1.125000000    -0.683000000    -0.281000000
H    -1.914000000    -1.257000000    -0.760000000
C    -0.637000000     0.430000000    -0.946000000
H    -1.138000000     0.789000000    -1.823000000
C     0.465000000     1.111000000    -0.494000000
H     0.807000000     2.036000000    -0.950000000
C     1.128000000     0.616000000     0.648000000
H     2.014000000     1.112000000     1.035000000
C     0.677000000    -0.533000000     1.276000000
C     1.538000000    -0.993000000     2.413000000
O     1.159000000    -1.881000000     3.106000000
O     2.637000000    -0.504000000     2.578000000
