14
-82.97816
C     1.339000000    -0.357000000     0.462000000
H     2.260000000    -0.761000000     0.874000000
C     0.156000000    -0.803000000     1.025000000
H     0.091000000    -1.501000000     1.856000000
C    -1.028000000    -0.337000000     0.463000000
H    -1.909000000    -0.543000000     1.057000000
C    -1.050000000     0.601000000    -0.572000000
H    -2.018000000     1.029000000    -0.819000000
C     0.129000000     0.956000000    -1.191000000
H     0.044000000     1.582000000    -2.076000000
C     1.312000000     0.482000000    -0.599000000
C     2.669000000     0.685000000    -1.328000000
O     2.694000000     0.807000000    -2.533000000
O     3.626000000     0.977000000    -0.669000000
