14
-86.27084
C    -0.222000000    -1.297000000     0.595000000
H    -0.229000000    -2.306000000     0.999000000
C     0.073000000    -1.082000000    -0.729000000
H     0.148000000    -2.005000000    -1.299000000
C     0.294000000     0.232000000    -1.167000000
H     0.497000000     0.560000000    -2.206000000
C     0.097000000     1.300000000    -0.296000000
H     0.243000000     2.316000000    -0.654000000
C    -0.214000000     1.046000000     1.012000000
H    -0.411000000     1.875000000     1.687000000
C    -0.410000000    -0.241000000     1.479000000
C    -0.705000000    -0.560000000     2.960000000
O    -0.515000000    -1.680000000     3.339000000
O    -0.953000000     0.334000000     3.705000000
