14
-85.20229
C    -0.897000000    -0.909000000     0.770000000
H    -1.602000000    -1.560000000     1.281000000
C    -0.885000000    -0.832000000    -0.621000000
H    -1.581000000    -1.458000000    -1.173000000
C     0.017000000     0.110000000    -1.168000000
H     0.192000000     0.091000000    -2.200000000
C     0.890000000     0.806000000    -0.468000000
H     1.548000000     1.498000000    -0.986000000
C     0.863000000     0.749000000     0.926000000
H     1.529000000     1.450000000     1.423000000
C    -0.012000000    -0.127000000     1.537000000
C     0.054000000    -0.332000000     3.046000000
O    -0.344000000    -1.364000000     3.538000000
O     0.491000000     0.564000000     3.764000000
