14
-90.50850
C    -0.221000000    -0.979000000     1.022000000
H    -0.464000000    -1.744000000     1.754000000
C    -0.611000000    -1.118000000    -0.300000000
H    -1.029000000    -2.058000000    -0.654000000
C    -0.411000000    -0.093000000    -1.197000000
H    -0.730000000    -0.191000000    -2.274000000
C     0.246000000     1.077000000    -0.766000000
H     0.371000000     1.947000000    -1.405000000
C     0.556000000     1.212000000     0.610000000
H     1.170000000     2.056000000     0.915000000
C     0.446000000     0.151000000     1.476000000
C     1.036000000     0.261000000     2.911000000
O     0.943000000    -0.662000000     3.737000000
O     1.655000000     1.296000000     3.267000000
