14
-82.24106
C    -0.871000000    -0.736000000     0.972000000
H    -1.443000000    -1.462000000     1.544000000
C    -0.894000000    -0.958000000    -0.379000000
H    -1.514000000    -1.668000000    -0.921000000
C    -0.191000000    -0.021000000    -1.181000000
H    -0.202000000    -0.186000000    -2.229000000
C     0.640000000     0.860000000    -0.602000000
H     1.177000000     1.508000000    -1.290000000
C     0.726000000     1.018000000     0.771000000
H     1.356000000     1.832000000     1.119000000
C    -0.088000000     0.268000000     1.568000000
C     0.154000000     0.263000000     3.092000000
O    -0.411000000    -0.646000000     3.605000000
O     0.823000000     1.085000000     3.673000000
