14
-88.87304
C     1.064000000    -1.013000000     0.016000000
H     1.870000000    -1.743000000     0.026000000
C     0.307000000    -0.744000000    -1.096000000
H     0.391000000    -1.354000000    -1.992000000
C    -0.662000000     0.313000000    -1.017000000
H    -1.292000000     0.482000000    -1.788000000
C    -0.824000000     1.004000000     0.163000000
H    -1.567000000     1.795000000     0.231000000
C    -0.065000000     0.652000000     1.295000000
H    -0.192000000     1.136000000     2.260000000
C     0.851000000    -0.380000000     1.287000000
C     1.563000000    -0.814000000     2.571000000
O     2.254000000    -1.778000000     2.535000000
O     1.562000000    -0.035000000     3.572000000
