14
-85.80004
C     1.293000000     0.103000000     0.672000000
H     2.282000000     0.258000000     1.096000000
C     1.021000000     0.266000000    -0.656000000
H     1.887000000     0.611000000    -1.216000000
C    -0.194000000     0.094000000    -1.231000000
H    -0.316000000     0.352000000    -2.312000000
C    -1.277000000    -0.186000000    -0.362000000
H    -2.266000000    -0.250000000    -0.807000000
C    -0.982000000    -0.303000000     1.013000000
H    -1.834000000    -0.511000000     1.656000000
C     0.283000000    -0.308000000     1.543000000
C     0.552000000    -0.413000000     3.037000000
O     1.610000000    -0.833000000     3.429000000
O    -0.253000000     0.124000000     3.781000000
