14
-88.21056
C     1.365000000     0.297000000     0.610000000
H     2.405000000     0.377000000     0.917000000
C     0.968000000     0.436000000    -0.717000000
H     1.692000000     0.509000000    -1.524000000
C    -0.347000000     0.204000000    -1.189000000
H    -0.542000000     0.251000000    -2.273000000
C    -1.315000000    -0.228000000    -0.262000000
H    -2.260000000    -0.658000000    -0.586000000
C    -0.932000000    -0.332000000     1.050000000
H    -1.653000000    -0.752000000     1.746000000
C     0.367000000     0.052000000     1.539000000
C     0.716000000    -0.035000000     3.031000000
O     1.790000000     0.373000000     3.504000000
O    -0.195000000    -0.372000000     3.771000000
