14
-77.78542
C     0.922000000    -0.255000000     1.082000000
H     1.682000000    -0.706000000     1.715000000
C     1.364000000    -0.073000000    -0.201000000
H     2.410000000    -0.156000000    -0.483000000
C     0.382000000     0.270000000    -1.111000000
H     0.695000000     0.439000000    -2.099000000
C    -0.926000000     0.484000000    -0.695000000
H    -1.726000000     0.710000000    -1.395000000
C    -1.274000000     0.229000000     0.559000000
H    -2.306000000     0.396000000     0.857000000
C    -0.378000000    -0.095000000     1.501000000
C    -0.781000000    -0.540000000     2.919000000
O    -0.054000000    -1.173000000     3.646000000
O    -1.985000000    -0.466000000     3.260000000
