14
-71.67719
C     1.329000000     0.005000000     0.743000000
H     2.314000000    -0.068000000     1.199000000
C     1.153000000     0.185000000    -0.648000000
H     1.928000000     0.342000000    -1.394000000
C    -0.106000000     0.109000000    -1.200000000
H    -0.319000000     0.174000000    -2.284000000
C    -1.199000000    -0.104000000    -0.386000000
H    -2.233000000    -0.098000000    -0.721000000
C    -1.059000000    -0.186000000     0.974000000
H    -1.924000000    -0.318000000     1.618000000
C     0.186000000    -0.059000000     1.544000000
C     0.264000000    -0.318000000     2.999000000
O     1.309000000    -0.567000000     3.425000000
O    -0.677000000    -0.508000000     3.750000000
