14
-85.39426
C     0.817000000    -0.574000000     1.005000000
H     1.478000000    -1.109000000     1.683000000
C     1.237000000    -0.321000000    -0.274000000
H     2.246000000    -0.616000000    -0.552000000
C     0.385000000     0.300000000    -1.114000000
H     0.693000000     0.569000000    -2.175000000
C    -0.950000000     0.563000000    -0.760000000
H    -1.644000000     0.971000000    -1.491000000
C    -1.397000000     0.151000000     0.510000000
H    -2.416000000     0.404000000     0.790000000
C    -0.485000000    -0.304000000     1.423000000
C    -0.923000000    -0.601000000     2.865000000
O    -0.009000000    -0.800000000     3.628000000
O    -2.058000000    -0.803000000     3.205000000
