14
-81.84351
C     1.301000000     0.485000000     0.514000000
H     2.291000000     0.743000000     0.881000000
C     1.117000000    -0.124000000    -0.701000000
H     1.932000000    -0.384000000    -1.372000000
C    -0.126000000    -0.492000000    -1.066000000
H    -0.426000000    -1.061000000    -1.970000000
C    -1.215000000    -0.152000000    -0.360000000
H    -2.160000000    -0.528000000    -0.744000000
C    -1.094000000     0.583000000     0.825000000
H    -1.955000000     0.821000000     1.444000000
C     0.189000000     0.791000000     1.333000000
C     0.383000000     1.327000000     2.698000000
O     1.459000000     1.117000000     3.268000000
O    -0.508000000     1.796000000     3.389000000
