14
-87.09896
C     1.101000000    -0.489000000     0.932000000
H     1.860000000    -1.041000000     1.479000000
C     1.024000000    -0.806000000    -0.440000000
H     1.721000000    -1.497000000    -0.907000000
C    -0.082000000    -0.284000000    -1.221000000
H    -0.201000000    -0.550000000    -2.302000000
C    -0.961000000     0.599000000    -0.596000000
H    -1.856000000     1.019000000    -1.048000000
C    -0.861000000     0.857000000     0.750000000
H    -1.632000000     1.504000000     1.160000000
C     0.196000000     0.411000000     1.518000000
C     0.306000000     0.836000000     2.990000000
O     0.997000000     0.205000000     3.801000000
O    -0.606000000     1.560000000     3.390000000
