14
-86.37986
C     0.887000000     0.446000000     1.130000000
H     1.593000000     0.803000000     1.875000000
C     1.176000000     0.640000000    -0.238000000
H     2.144000000     1.063000000    -0.494000000
C     0.238000000     0.192000000    -1.148000000
H     0.353000000     0.385000000    -2.168000000
C    -0.981000000    -0.325000000    -0.735000000
H    -1.738000000    -0.545000000    -1.483000000
C    -1.232000000    -0.641000000     0.579000000
H    -2.209000000    -1.046000000     0.830000000
C    -0.299000000    -0.274000000     1.546000000
C    -0.537000000    -0.691000000     2.920000000
O     0.314000000    -0.385000000     3.796000000
O    -1.635000000    -1.088000000     3.292000000
