14
-87.87601
C     1.335000000     0.489000000     0.388000000
H     2.290000000     0.923000000     0.672000000
C     0.874000000     0.404000000    -0.966000000
H     1.568000000     0.547000000    -1.790000000
C    -0.454000000     0.031000000    -1.156000000
H    -0.869000000    -0.167000000    -2.142000000
C    -1.284000000    -0.329000000    -0.089000000
H    -2.324000000    -0.559000000    -0.307000000
C    -0.726000000    -0.412000000     1.180000000
H    -1.353000000    -0.646000000     2.037000000
C     0.547000000     0.109000000     1.484000000
C     1.027000000     0.125000000     2.929000000
O     2.228000000    -0.017000000     3.194000000
O     0.229000000     0.144000000     3.825000000
