14
-89.33496
C     1.381000000     0.393000000     0.215000000
H     2.418000000     0.717000000     0.263000000
C     0.873000000    -0.014000000    -1.051000000
H     1.470000000    -0.154000000    -1.948000000
C    -0.482000000    -0.323000000    -1.072000000
H    -0.934000000    -0.745000000    -2.035000000
C    -1.328000000    -0.245000000     0.045000000
H    -2.328000000    -0.645000000    -0.105000000
C    -0.802000000     0.299000000     1.229000000
H    -1.497000000     0.421000000     2.056000000
C     0.556000000     0.569000000     1.334000000
C     1.118000000     1.037000000     2.662000000
O     2.276000000     0.833000000     2.867000000
O     0.399000000     1.577000000     3.506000000
