14
-84.06789
C     0.998000000    -0.599000000     0.851000000
H     1.822000000    -1.110000000     1.343000000
C     0.644000000    -1.057000000    -0.376000000
H     1.103000000    -1.954000000    -0.784000000
C    -0.330000000    -0.369000000    -1.095000000
H    -0.607000000    -0.735000000    -2.134000000
C    -0.932000000     0.720000000    -0.520000000
H    -1.698000000     1.157000000    -1.155000000
C    -0.609000000     1.221000000     0.690000000
H    -1.213000000     2.004000000     1.140000000
C     0.414000000     0.563000000     1.378000000
C     0.861000000     0.992000000     2.736000000
O     2.035000000     0.906000000     3.058000000
O     0.093000000     1.404000000     3.585000000
