14
-93.59084
C     1.302000000    -0.012000000     0.732000000
H     2.292000000     0.021000000     1.180000000
C     1.076000000    -0.564000000    -0.520000000
H     1.912000000    -1.044000000    -1.022000000
C    -0.138000000    -0.436000000    -1.143000000
H    -0.308000000    -0.931000000    -2.122000000
C    -1.234000000     0.167000000    -0.488000000
H    -2.251000000     0.251000000    -0.863000000
C    -1.055000000     0.663000000     0.799000000
H    -1.876000000     1.115000000     1.349000000
C     0.216000000     0.599000000     1.421000000
C     0.396000000     1.171000000     2.819000000
O     1.556000000     1.375000000     3.251000000
O    -0.588000000     1.491000000     3.426000000
