14
-81.61303
C     0.723000000     1.244000000     0.508000000
H     1.329000000     2.012000000     0.980000000
C     1.289000000     0.240000000    -0.234000000
H     2.348000000     0.128000000    -0.454000000
C     0.503000000    -0.871000000    -0.676000000
H     0.977000000    -1.628000000    -1.334000000
C    -0.820000000    -0.886000000    -0.468000000
H    -1.498000000    -1.657000000    -0.825000000
C    -1.392000000     0.093000000     0.302000000
H    -2.405000000     0.032000000     0.690000000
C    -0.633000000     1.127000000     0.772000000
C    -1.301000000     2.213000000     1.578000000
O    -0.786000000     3.272000000     1.825000000
O    -2.498000000     2.135000000     1.935000000
