14
-79.87726
C     0.910000000     1.121000000     0.176000000
H     1.681000000     1.887000000     0.221000000
C     1.210000000    -0.035000000    -0.447000000
H     2.123000000    -0.147000000    -1.027000000
C     0.297000000    -1.078000000    -0.518000000
H     0.603000000    -1.968000000    -1.059000000
C    -0.974000000    -1.002000000     0.124000000
H    -1.665000000    -1.839000000     0.179000000
C    -1.297000000     0.280000000     0.643000000
H    -2.273000000     0.357000000     1.115000000
C    -0.335000000     1.332000000     0.731000000
C    -0.658000000     2.672000000     1.417000000
O    -0.115000000     3.699000000     1.132000000
O    -1.591000000     2.741000000     2.153000000
