14
-79.58910
C     0.767000000     1.150000000     0.385000000
H     1.492000000     1.949000000     0.520000000
C     1.214000000     0.089000000    -0.417000000
H     2.151000000     0.146000000    -0.965000000
C     0.363000000    -0.963000000    -0.720000000
H     0.616000000    -1.643000000    -1.534000000
C    -0.896000000    -0.942000000    -0.116000000
H    -1.648000000    -1.717000000    -0.246000000
C    -1.328000000     0.129000000     0.732000000
H    -2.318000000     0.154000000     1.181000000
C    -0.488000000     1.259000000     0.929000000
C    -0.860000000     2.401000000     1.750000000
O    -0.101000000     3.340000000     1.963000000
O    -2.077000000     2.693000000     1.834000000
