14
-90.58687
C     0.971000000     1.028000000    -0.204000000
H     1.685000000     1.819000000    -0.418000000
C     0.986000000    -0.214000000    -0.854000000
H     1.703000000    -0.430000000    -1.642000000
C     0.078000000    -1.179000000    -0.426000000
H     0.057000000    -2.177000000    -0.960000000
C    -1.008000000    -0.804000000     0.394000000
H    -1.792000000    -1.532000000     0.588000000
C    -1.072000000     0.502000000     0.941000000
H    -1.986000000     0.749000000     1.475000000
C    -0.045000000     1.411000000     0.746000000
C    -0.059000000     2.816000000     1.379000000
O     0.985000000     3.520000000     1.355000000
O    -1.070000000     3.258000000     1.888000000
