14
-89.55569
C     1.132000000     0.832000000     0.440000000
H     2.026000000     1.412000000     0.655000000
C     1.215000000    -0.216000000    -0.426000000
H     2.183000000    -0.459000000    -0.859000000
C     0.080000000    -0.975000000    -0.722000000
H     0.223000000    -1.732000000    -1.433000000
C    -1.161000000    -0.634000000    -0.237000000
H    -2.009000000    -1.232000000    -0.559000000
C    -1.303000000     0.450000000     0.619000000
H    -2.255000000     0.920000000     0.854000000
C    -0.156000000     1.177000000     1.017000000
C    -0.299000000     2.440000000     1.892000000
O     0.721000000     3.031000000     2.223000000
O    -1.384000000     2.837000000     2.271000000
