14
-82.99745
C     0.923000000     0.683000000    -0.920000000
H     1.636000000     1.082000000    -1.638000000
C     0.352000000    -0.557000000    -1.121000000
H     0.569000000    -1.113000000    -2.029000000
C    -0.440000000    -1.130000000    -0.133000000
H    -0.979000000    -2.049000000    -0.335000000
C    -0.798000000    -0.448000000     0.988000000
H    -1.473000000    -0.905000000     1.707000000
C    -0.298000000     0.830000000     1.142000000
H    -0.592000000     1.483000000     1.959000000
C     0.633000000     1.406000000     0.229000000
C     1.226000000     2.776000000     0.498000000
O     2.041000000     3.288000000    -0.270000000
O     1.181000000     3.227000000     1.597000000
