14
-83.39381
C     0.310000000    -1.271000000     0.653000000
H     0.648000000    -2.190000000     1.126000000
C     0.821000000    -0.876000000    -0.596000000
H     1.623000000    -1.431000000    -1.075000000
C     0.401000000     0.320000000    -1.140000000
H     0.773000000     0.629000000    -2.067000000
C    -0.616000000     1.025000000    -0.480000000
H    -0.891000000     2.004000000    -0.865000000
C    -1.026000000     0.712000000     0.805000000
H    -1.794000000     1.318000000     1.279000000
C    -0.619000000    -0.490000000     1.387000000
C    -1.113000000    -0.916000000     2.730000000
O    -1.805000000    -0.250000000     3.448000000
O    -0.847000000    -2.022000000     3.149000000
