14
-87.29130
C     1.260000000     0.575000000    -0.528000000
H     2.242000000     0.822000000    -0.923000000
C     0.845000000    -0.703000000    -0.828000000
H     1.355000000    -1.319000000    -1.564000000
C    -0.356000000    -1.122000000    -0.222000000
H    -0.596000000    -2.175000000    -0.341000000
C    -1.088000000    -0.305000000     0.585000000
H    -1.914000000    -0.724000000     1.155000000
C    -0.747000000     0.984000000     0.777000000
H    -1.291000000     1.645000000     1.447000000
C     0.478000000     1.444000000     0.272000000
C     0.959000000     2.867000000     0.568000000
O     2.115000000     3.076000000     0.994000000
O     0.150000000     3.744000000     0.510000000
