14
-79.32090
C     1.269000000     0.519000000    -0.594000000
H     2.198000000     0.814000000    -1.075000000
C     0.497000000    -0.583000000    -1.030000000
H     0.896000000    -1.279000000    -1.764000000
C    -0.689000000    -0.973000000    -0.369000000
H    -1.335000000    -1.839000000    -0.600000000
C    -1.198000000    -0.196000000     0.667000000
H    -2.153000000    -0.453000000     1.119000000
C    -0.421000000     0.912000000     1.044000000
H    -0.701000000     1.431000000     1.957000000
C     0.790000000     1.278000000     0.445000000
C     1.570000000     2.382000000     1.034000000
O     2.680000000     2.660000000     0.698000000
O     1.141000000     3.074000000     1.934000000
