14
-87.50218
C     1.097000000     0.944000000    -0.193000000
H     2.036000000     1.448000000    -0.403000000
C     0.986000000    -0.380000000    -0.639000000
H     1.836000000    -0.772000000    -1.193000000
C    -0.173000000    -1.106000000    -0.495000000
H    -0.242000000    -2.156000000    -0.782000000
C    -1.205000000    -0.605000000     0.286000000
H    -2.010000000    -1.285000000     0.556000000
C    -1.009000000     0.628000000     0.900000000
H    -1.727000000     1.115000000     1.555000000
C     0.082000000     1.445000000     0.613000000
C     0.321000000     2.788000000     1.203000000
O     1.333000000     3.442000000     0.874000000
O    -0.332000000     3.154000000     2.157000000
