14
-77.06117
C     1.284000000     0.544000000    -0.142000000
H     2.256000000     0.936000000    -0.430000000
C     0.809000000    -0.457000000    -0.827000000
H     1.290000000    -0.918000000    -1.686000000
C    -0.512000000    -0.910000000    -0.617000000
H    -1.018000000    -1.647000000    -1.301000000
C    -1.217000000    -0.326000000     0.396000000
H    -2.249000000    -0.637000000     0.536000000
C    -0.643000000     0.665000000     1.201000000
H    -1.178000000     1.047000000     2.066000000
C     0.614000000     1.140000000     0.881000000
C     1.269000000     2.236000000     1.639000000
O     2.302000000     2.664000000     1.262000000
O     0.645000000     2.709000000     2.540000000
