14
-86.79013
C     1.186000000     0.070000000     0.856000000
H     2.077000000     0.043000000     1.477000000
C     0.627000000    -1.056000000     0.410000000
H     1.096000000    -2.017000000     0.607000000
C    -0.542000000    -1.042000000    -0.398000000
H    -0.889000000    -1.926000000    -0.899000000
C    -1.046000000     0.198000000    -0.786000000
H    -1.843000000     0.276000000    -1.521000000
C    -0.421000000     1.339000000    -0.232000000
H    -0.786000000     2.278000000    -0.641000000
C     0.663000000     1.316000000     0.578000000
C     1.306000000     2.573000000     1.186000000
O     2.376000000     2.504000000     1.745000000
O     0.707000000     3.635000000     1.148000000
