14
-81.30971
C     1.398000000     0.392000000    -0.097000000
H     2.462000000     0.589000000    -0.193000000
C     0.834000000    -0.806000000    -0.552000000
H     1.415000000    -1.603000000    -1.008000000
C    -0.491000000    -1.073000000    -0.350000000
H    -1.099000000    -1.796000000    -0.855000000
C    -1.290000000    -0.138000000     0.301000000
H    -2.335000000    -0.422000000     0.395000000
C    -0.745000000     1.149000000     0.636000000
H    -1.361000000     1.985000000     0.957000000
C     0.619000000     1.339000000     0.550000000
C     1.308000000     2.626000000     0.928000000
O     2.454000000     2.904000000     0.627000000
O     0.661000000     3.528000000     1.433000000
