14
-75.31665
C     1.475000000    -0.321000000    -0.156000000
H     2.497000000    -0.665000000    -0.294000000
C     0.494000000    -1.260000000    -0.272000000
H     0.755000000    -2.283000000    -0.528000000
C    -0.849000000    -0.919000000    -0.039000000
H    -1.727000000    -1.565000000    -0.054000000
C    -1.152000000     0.369000000     0.317000000
H    -2.196000000     0.604000000     0.505000000
C    -0.185000000     1.381000000     0.315000000
H    -0.458000000     2.398000000     0.588000000
C     1.165000000     1.069000000     0.010000000
C     2.158000000     2.160000000     0.366000000
O     3.333000000     2.027000000     0.542000000
O     1.676000000     3.222000000     0.305000000
