14
-84.95418
C     1.514000000    -0.057000000    -0.042000000
H     2.588000000    -0.229000000    -0.046000000
C     0.619000000    -1.157000000    -0.079000000
H     0.951000000    -2.188000000    -0.169000000
C    -0.745000000    -1.006000000    -0.004000000
H    -1.353000000    -1.892000000     0.219000000
C    -1.250000000     0.275000000     0.031000000
H    -2.317000000     0.481000000     0.058000000
C    -0.375000000     1.364000000     0.027000000
H    -0.812000000     2.354000000    -0.079000000
C     0.963000000     1.237000000     0.060000000
C     1.852000000     2.443000000     0.105000000
O     3.069000000     2.318000000     0.231000000
O     1.392000000     3.545000000     0.201000000
