14
-90.30285
C     1.417000000    -0.278000000     0.414000000
H     2.415000000    -0.559000000     0.742000000
C     0.460000000    -1.296000000     0.132000000
H     0.604000000    -2.360000000     0.298000000
C    -0.839000000    -0.883000000    -0.236000000
H    -1.634000000    -1.538000000    -0.396000000
C    -1.123000000     0.530000000    -0.471000000
H    -2.114000000     0.832000000    -0.802000000
C    -0.158000000     1.476000000    -0.160000000
H    -0.395000000     2.528000000    -0.302000000
C     1.076000000     1.092000000     0.348000000
C     2.071000000     2.179000000     0.753000000
O     3.001000000     1.840000000     1.492000000
O     2.055000000     3.306000000     0.286000000
