14
-85.65470
C     0.981000000     0.151000000     1.106000000
H     1.752000000     0.046000000     1.864000000
C     0.750000000    -1.005000000     0.330000000
H     1.398000000    -1.871000000     0.433000000
C    -0.383000000    -1.081000000    -0.485000000
H    -0.633000000    -2.072000000    -0.909000000
C    -1.105000000     0.071000000    -0.827000000
H    -2.000000000     0.056000000    -1.443000000
C    -0.660000000     1.258000000    -0.267000000
H    -1.176000000     2.200000000    -0.435000000
C     0.397000000     1.344000000     0.643000000
C     0.856000000     2.751000000     1.140000000
O     1.782000000     2.875000000     1.961000000
O     0.314000000     3.750000000     0.753000000
