14
-83.62848
C     1.346000000    -0.294000000     0.454000000
H     2.345000000    -0.590000000     0.763000000
C     0.527000000    -1.213000000    -0.107000000
H     0.911000000    -2.229000000    -0.159000000
C    -0.765000000    -0.799000000    -0.464000000
H    -1.493000000    -1.476000000    -1.004000000
C    -1.145000000     0.518000000    -0.381000000
H    -2.088000000     0.846000000    -0.811000000
C    -0.285000000     1.409000000     0.257000000
H    -0.664000000     2.427000000     0.206000000
C     0.917000000     1.008000000     0.733000000
C     1.876000000     2.098000000     1.184000000
O     3.070000000     1.781000000     1.243000000
O     1.541000000     3.196000000     1.520000000
