14
-85.93081
C     1.009000000    -0.148000000     1.039000000
H     1.770000000    -0.343000000     1.790000000
C    -0.010000000    -1.079000000     0.819000000
H     0.051000000    -1.972000000     1.436000000
C    -0.816000000    -0.882000000    -0.255000000
H    -1.575000000    -1.692000000    -0.469000000
C    -0.669000000     0.227000000    -1.102000000
H    -1.290000000     0.360000000    -1.984000000
C     0.237000000     1.219000000    -0.792000000
H     0.253000000     2.094000000    -1.437000000
C     1.087000000     1.032000000     0.328000000
C     1.989000000     2.164000000     0.733000000
O     2.774000000     2.083000000     1.661000000
O     1.988000000     3.233000000     0.138000000
