14
-84.89705
C     0.900000000    -0.604000000     0.932000000
H     1.492000000    -1.278000000     1.545000000
C    -0.179000000    -1.226000000     0.417000000
H    -0.377000000    -2.266000000     0.663000000
C    -1.001000000    -0.505000000    -0.469000000
H    -1.819000000    -1.068000000    -0.902000000
C    -0.645000000     0.805000000    -0.802000000
H    -1.189000000     1.381000000    -1.547000000
C     0.463000000     1.419000000    -0.222000000
H     0.564000000     2.466000000    -0.497000000
C     1.272000000     0.675000000     0.649000000
C     2.608000000     1.229000000     1.147000000
O     3.316000000     0.466000000     1.755000000
O     2.856000000     2.394000000     1.049000000
