14
-88.70115
C     0.109000000    -1.484000000     0.116000000
H     0.015000000    -2.546000000     0.329000000
C    -0.797000000    -0.824000000    -0.724000000
H    -1.527000000    -1.422000000    -1.262000000
C    -0.762000000     0.575000000    -0.860000000
H    -1.391000000     1.125000000    -1.522000000
C     0.197000000     1.293000000    -0.105000000
H     0.180000000     2.379000000    -0.141000000
C     1.137000000     0.598000000     0.808000000
H     1.750000000     1.186000000     1.487000000
C     1.044000000    -0.800000000     0.942000000
C     1.954000000    -1.526000000     1.933000000
O     1.773000000    -2.726000000     2.199000000
O     2.887000000    -0.906000000     2.345000000
