14
-79.44200
C     0.948000000    -1.164000000     0.103000000
H     1.455000000    -2.123000000     0.173000000
C    -0.117000000    -1.076000000    -0.777000000
H    -0.386000000    -1.974000000    -1.326000000
C    -0.928000000     0.043000000    -0.799000000
H    -1.826000000     0.196000000    -1.458000000
C    -0.578000000     1.150000000    -0.058000000
H    -1.182000000     2.052000000    -0.110000000
C     0.464000000     1.069000000     0.827000000
H     0.517000000     1.838000000     1.594000000
C     1.236000000    -0.083000000     1.032000000
C     2.438000000    -0.100000000     1.945000000
O     2.775000000    -1.184000000     2.322000000
O     2.843000000     0.893000000     2.474000000
