14
-86.89703
C    -0.161000000    -1.301000000     0.721000000
H    -0.334000000    -2.290000000     1.139000000
C    -0.893000000    -0.869000000    -0.416000000
H    -1.616000000    -1.502000000    -0.925000000
C    -0.671000000     0.412000000    -0.928000000
H    -1.289000000     0.794000000    -1.736000000
C     0.182000000     1.272000000    -0.323000000
H     0.298000000     2.273000000    -0.730000000
C     1.023000000     0.860000000     0.708000000
H     1.776000000     1.530000000     1.116000000
C     0.834000000    -0.429000000     1.290000000
C     1.691000000    -1.028000000     2.409000000
O     1.290000000    -1.960000000     3.027000000
O     2.852000000    -0.663000000     2.536000000
