14
-91.86097
C     1.505000000    -0.094000000    -0.182000000
H     2.566000000    -0.163000000    -0.410000000
C     0.559000000    -0.207000000    -1.211000000
H     0.877000000    -0.371000000    -2.237000000
C    -0.756000000    -0.188000000    -0.912000000
H    -1.496000000    -0.370000000    -1.681000000
C    -1.277000000     0.075000000     0.351000000
H    -2.320000000     0.168000000     0.643000000
C    -0.354000000     0.341000000     1.350000000
H    -0.712000000     0.613000000     2.339000000
C     1.032000000     0.216000000     1.112000000
C     1.945000000     0.376000000     2.305000000
O     3.158000000     0.314000000     2.089000000
O     1.521000000     0.499000000     3.458000000
