14
-89.83785
C     1.042000000    -0.655000000    -0.738000000
H     1.789000000    -1.210000000    -1.299000000
C    -0.263000000    -1.064000000    -0.764000000
H    -0.564000000    -1.994000000    -1.240000000
C    -1.177000000    -0.386000000     0.068000000
H    -2.145000000    -0.826000000     0.259000000
C    -0.737000000     0.788000000     0.761000000
H    -1.456000000     1.358000000     1.343000000
C     0.552000000     1.281000000     0.616000000
H     0.829000000     2.247000000     1.031000000
C     1.464000000     0.544000000    -0.130000000
C     2.908000000     1.002000000    -0.199000000
O     3.729000000     0.312000000    -0.792000000
O     3.278000000     1.949000000     0.448000000
