14
-84.17998
C     0.992000000    -0.938000000     0.570000000
H     1.653000000    -1.712000000     0.951000000
C    -0.248000000    -1.294000000    -0.002000000
H    -0.620000000    -2.314000000     0.036000000
C    -1.062000000    -0.289000000    -0.524000000
H    -2.089000000    -0.516000000    -0.779000000
C    -0.587000000     0.956000000    -0.545000000
H    -1.252000000     1.764000000    -0.838000000
C     0.611000000     1.341000000     0.012000000
H     0.916000000     2.382000000    -0.058000000
C     1.431000000     0.400000000     0.612000000
C     2.793000000     0.701000000     1.256000000
O     3.297000000    -0.089000000     2.027000000
O     3.221000000     1.807000000     1.165000000
