14
-83.88502
C     0.819000000    -0.882000000     0.843000000
H     1.328000000    -1.570000000     1.513000000
C    -0.255000000    -1.251000000     0.068000000
H    -0.734000000    -2.214000000     0.224000000
C    -0.917000000    -0.336000000    -0.743000000
H    -1.891000000    -0.546000000    -1.174000000
C    -0.479000000     0.962000000    -0.810000000
H    -0.978000000     1.623000000    -1.514000000
C     0.610000000     1.312000000    -0.018000000
H     1.048000000     2.306000000    -0.055000000
C     1.287000000     0.398000000     0.850000000
C     2.313000000     0.959000000     1.894000000
O     2.944000000     0.184000000     2.540000000
O     2.328000000     2.138000000     2.173000000
