14
-81.93764
C     1.064000000    -1.020000000    -0.356000000
H     1.811000000    -1.744000000    -0.671000000
C    -0.252000000    -1.024000000    -0.813000000
H    -0.675000000    -1.734000000    -1.520000000
C    -1.119000000    -0.005000000    -0.388000000
H    -2.140000000    -0.141000000    -0.704000000
C    -0.708000000     1.042000000     0.418000000
H    -1.372000000     1.829000000     0.765000000
C     0.585000000     1.068000000     0.934000000
H     0.893000000     1.970000000     1.456000000
C     1.446000000    -0.024000000     0.570000000
C     2.836000000    -0.032000000     0.970000000
O     3.416000000    -1.071000000     1.126000000
O     3.234000000     1.034000000     1.383000000
