14
-76.42050
C     0.533000000    -0.306000000    -1.344000000
H     0.659000000    -0.452000000    -2.414000000
C    -0.808000000    -0.455000000    -0.950000000
H    -1.596000000    -0.851000000    -1.586000000
C    -1.199000000    -0.167000000     0.298000000
H    -2.298000000    -0.212000000     0.520000000
C    -0.266000000     0.380000000     1.175000000
H    -0.588000000     0.658000000     2.176000000
C     1.101000000     0.483000000     0.882000000
H     1.875000000     0.751000000     1.596000000
C     1.492000000     0.157000000    -0.441000000
C     2.980000000     0.182000000    -0.817000000
O     3.392000000    -0.090000000    -1.935000000
O     3.791000000     0.784000000    -0.156000000
