14
-86.27277
C     1.365000000     0.176000000     0.427000000
H     2.420000000     0.152000000     0.685000000
C     0.952000000    -0.278000000    -0.822000000
H     1.707000000    -0.653000000    -1.510000000
C    -0.386000000    -0.305000000    -1.105000000
H    -0.578000000    -0.588000000    -2.143000000
C    -1.314000000    -0.034000000    -0.105000000
H    -2.379000000    -0.004000000    -0.321000000
C    -0.891000000     0.350000000     1.141000000
H    -1.584000000     0.438000000     1.974000000
C     0.493000000     0.454000000     1.418000000
C     0.948000000     0.983000000     2.730000000
O     2.141000000     1.218000000     2.851000000
O     0.223000000     1.000000000     3.698000000
