14
-81.60091
C     1.189000000    -0.634000000    -0.696000000
H     1.996000000    -1.194000000    -1.163000000
C    -0.057000000    -1.236000000    -0.437000000
H    -0.193000000    -2.295000000    -0.640000000
C    -1.060000000    -0.573000000     0.177000000
H    -1.938000000    -1.139000000     0.545000000
C    -0.850000000     0.699000000     0.601000000
H    -1.686000000     1.140000000     1.138000000
C     0.299000000     1.386000000     0.269000000
H     0.345000000     2.460000000     0.428000000
C     1.323000000     0.725000000    -0.397000000
C     2.670000000     1.485000000    -0.570000000
O     3.514000000     1.069000000    -1.293000000
O     2.803000000     2.526000000    -0.013000000
