14
-88.45191
C     1.322000000     0.112000000    -0.701000000
H     2.280000000    -0.006000000    -1.202000000
C     0.582000000    -1.025000000    -0.576000000
H     0.844000000    -1.972000000    -1.040000000
C    -0.568000000    -1.019000000     0.223000000
H    -1.178000000    -1.890000000     0.390000000
C    -0.939000000     0.140000000     0.809000000
H    -1.879000000     0.116000000     1.356000000
C    -0.255000000     1.318000000     0.664000000
H    -0.567000000     2.289000000     1.039000000
C     0.852000000     1.295000000    -0.146000000
C     1.635000000     2.594000000    -0.379000000
O     2.423000000     2.615000000    -1.330000000
O     1.228000000     3.611000000     0.163000000
