14
-85.69897
C     0.325000000     0.199000000     1.440000000
H     0.452000000     0.109000000     2.515000000
C     0.634000000    -0.991000000     0.762000000
H     1.205000000    -1.834000000     1.141000000
C     0.385000000    -0.959000000    -0.627000000
H     0.640000000    -1.825000000    -1.266000000
C    -0.222000000     0.133000000    -1.219000000
H    -0.383000000     0.036000000    -2.289000000
C    -0.642000000     1.236000000    -0.484000000
H    -1.206000000     2.013000000    -0.992000000
C    -0.403000000     1.270000000     0.864000000
C    -0.913000000     2.528000000     1.561000000
O    -0.604000000     2.736000000     2.703000000
O    -1.568000000     3.376000000     0.957000000
