14
-87.88349
C     0.799000000     1.174000000    -0.090000000
H     1.468000000     1.994000000    -0.339000000
C     1.208000000    -0.139000000    -0.295000000
H     2.192000000    -0.310000000    -0.723000000
C     0.363000000    -1.170000000    -0.165000000
H     0.697000000    -2.154000000    -0.476000000
C    -0.984000000    -0.923000000     0.180000000
H    -1.726000000    -1.716000000     0.122000000
C    -1.386000000     0.421000000     0.530000000
H    -2.422000000     0.683000000     0.728000000
C    -0.510000000     1.452000000     0.333000000
C    -0.860000000     2.925000000     0.578000000
O    -0.259000000     3.772000000    -0.043000000
O    -1.708000000     3.276000000     1.433000000
