14
-87.30144
C     1.093000000     0.920000000    -0.455000000
H     1.722000000     1.690000000    -0.895000000
C     0.413000000    -0.100000000    -1.201000000
H     0.619000000    -0.287000000    -2.252000000
C    -0.507000000    -0.977000000    -0.675000000
H    -0.908000000    -1.751000000    -1.264000000
C    -0.863000000    -0.818000000     0.709000000
H    -1.705000000    -1.335000000     1.161000000
C    -0.244000000     0.249000000     1.461000000
H    -0.567000000     0.420000000     2.485000000
C     0.756000000     1.091000000     0.919000000
C     1.394000000     2.294000000     1.649000000
O     2.414000000     2.877000000     1.252000000
O     0.849000000     2.720000000     2.693000000
