14
-86.11932
C     0.938000000     0.784000000     0.816000000
H     1.713000000     1.398000000     1.267000000
C     1.279000000    -0.082000000    -0.182000000
H     2.310000000    -0.084000000    -0.524000000
C     0.270000000    -0.682000000    -0.999000000
H     0.553000000    -1.303000000    -1.831000000
C    -1.015000000    -0.727000000    -0.488000000
H    -1.826000000    -1.259000000    -0.979000000
C    -1.364000000     0.037000000     0.622000000
H    -2.381000000     0.046000000     1.005000000
C    -0.386000000     0.802000000     1.219000000
C    -0.808000000     1.762000000     2.269000000
O    -0.259000000     2.869000000     2.438000000
O    -1.898000000     1.582000000     2.832000000
