14
-78.93502
C    -0.185000000     1.497000000     0.045000000
H    -0.208000000     2.584000000     0.047000000
C     0.646000000     0.791000000    -0.848000000
H     1.144000000     1.352000000    -1.635000000
C     0.774000000    -0.582000000    -0.772000000
H     1.370000000    -1.117000000    -1.538000000
C     0.207000000    -1.212000000     0.273000000
H     0.244000000    -2.288000000     0.417000000
C    -0.629000000    -0.525000000     1.169000000
H    -1.094000000    -1.061000000     1.993000000
C    -0.917000000     0.846000000     0.984000000
C    -1.895000000     1.549000000     1.807000000
O    -2.516000000     2.563000000     1.512000000
O    -2.264000000     1.050000000     2.844000000
