14
-75.35847
C     0.704000000     0.795000000     0.951000000
H     1.147000000     1.177000000     1.867000000
C     1.219000000    -0.348000000     0.409000000
H     2.135000000    -0.813000000     0.763000000
C     0.456000000    -1.053000000    -0.507000000
H     0.818000000    -2.012000000    -0.962000000
C    -0.796000000    -0.549000000    -0.913000000
H    -1.367000000    -1.022000000    -1.708000000
C    -1.195000000     0.699000000    -0.385000000
H    -2.134000000     1.142000000    -0.707000000
C    -0.483000000     1.418000000     0.522000000
C    -1.040000000     2.648000000     1.123000000
O    -0.405000000     3.457000000     1.722000000
O    -2.124000000     3.018000000     0.756000000
