14
-85.21518
C     1.045000000     1.019000000     0.019000000
H     1.891000000     1.696000000    -0.063000000
C     1.279000000    -0.322000000    -0.013000000
H     2.284000000    -0.653000000    -0.264000000
C     0.236000000    -1.194000000    -0.011000000
H     0.388000000    -2.262000000    -0.090000000
C    -1.093000000    -0.780000000     0.272000000
H    -1.924000000    -1.478000000     0.205000000
C    -1.309000000     0.578000000     0.410000000
H    -2.316000000     0.969000000     0.526000000
C    -0.270000000     1.514000000     0.262000000
C    -0.652000000     3.015000000     0.145000000
O     0.207000000     3.819000000     0.007000000
O    -1.806000000     3.380000000     0.330000000
