14
-86.40764
C    -0.901000000     0.877000000     0.664000000
H    -1.513000000     1.508000000     1.303000000
C     0.461000000     0.898000000     0.873000000
H     0.824000000     1.676000000     1.539000000
C     1.252000000     0.008000000     0.088000000
H     2.383000000     0.125000000     0.213000000
C     0.690000000    -0.893000000    -0.795000000
H     1.339000000    -1.518000000    -1.402000000
C    -0.731000000    -0.921000000    -0.913000000
H    -1.158000000    -1.702000000    -1.537000000
C    -1.599000000    -0.034000000    -0.216000000
C    -3.153000000    -0.075000000    -0.317000000
O    -3.768000000     0.952000000     0.043000000
O    -3.733000000    -0.909000000    -1.046000000
