14
-84.04101
C    -1.250000000     0.847000000     0.363000000
H    -2.067000000     1.466000000     0.724000000
C    -0.172000000     0.557000000     1.222000000
H    -0.199000000     0.947000000     2.237000000
C     0.939000000    -0.171000000     0.843000000
H     1.944000000    -0.217000000     1.429000000
C     0.875000000    -0.714000000    -0.397000000
H     1.699000000    -1.307000000    -0.785000000
C    -0.191000000    -0.565000000    -1.247000000
H    -0.146000000    -1.066000000    -2.211000000
C    -1.212000000     0.228000000    -0.883000000
C    -2.341000000     0.434000000    -1.928000000
O    -3.269000000     1.223000000    -1.789000000
O    -2.269000000    -0.223000000    -2.944000000
