14
-84.53060
C    -1.288000000     0.775000000     0.037000000
H    -2.245000000     1.282000000     0.125000000
C    -0.714000000     0.139000000     1.118000000
H    -1.132000000     0.217000000     2.119000000
C     0.486000000    -0.501000000     0.967000000
H     1.021000000    -0.919000000     1.785000000
C     1.116000000    -0.572000000    -0.291000000
H     2.050000000    -1.128000000    -0.324000000
C     0.548000000     0.048000000    -1.352000000
H     1.049000000    -0.039000000    -2.312000000
C    -0.718000000     0.683000000    -1.191000000
C    -1.413000000     1.225000000    -2.450000000
O    -2.599000000     1.509000000    -2.421000000
O    -0.832000000     1.487000000    -3.460000000
