14
-85.32673
C    -1.250000000     0.725000000    -0.200000000
H    -2.247000000     1.112000000    -0.397000000
C    -1.129000000    -0.592000000     0.233000000
H    -1.993000000    -1.246000000     0.316000000
C     0.125000000    -1.188000000     0.409000000
H     0.184000000    -2.170000000     0.913000000
C     1.227000000    -0.335000000     0.244000000
H     2.178000000    -0.813000000     0.464000000
C     1.103000000     1.023000000    -0.011000000
H     1.961000000     1.689000000    -0.037000000
C    -0.130000000     1.534000000    -0.363000000
C    -0.312000000     2.883000000    -1.078000000
O    -1.398000000     3.202000000    -1.592000000
O     0.659000000     3.517000000    -1.358000000
