14
-88.05668
C    -1.396000000     0.135000000    -0.691000000
H    -2.327000000     0.012000000    -1.240000000
C    -0.806000000    -1.058000000    -0.240000000
H    -1.215000000    -2.046000000    -0.435000000
C     0.397000000    -1.014000000     0.405000000
H     0.915000000    -1.991000000     0.716000000
C     1.065000000     0.131000000     0.681000000
H     1.941000000     0.191000000     1.321000000
C     0.575000000     1.345000000     0.170000000
H     1.138000000     2.267000000     0.294000000
C    -0.646000000     1.342000000    -0.557000000
C    -1.149000000     2.619000000    -1.171000000
O    -2.159000000     2.618000000    -1.834000000
O    -0.370000000     3.555000000    -1.109000000
