14
-83.49998
C     0.646000000     0.784000000    -1.105000000
H     0.940000000     1.452000000    -1.911000000
C    -0.461000000    -0.048000000    -1.245000000
H    -1.024000000    -0.083000000    -2.174000000
C    -0.858000000    -0.881000000    -0.182000000
H    -1.713000000    -1.552000000    -0.203000000
C    -0.229000000    -0.776000000     1.029000000
H    -0.654000000    -1.285000000     1.890000000
C     0.880000000     0.060000000     1.170000000
H     1.313000000     0.196000000     2.158000000
C     1.252000000     0.984000000     0.157000000
C     2.309000000     1.934000000     0.458000000
O     2.696000000     2.637000000    -0.425000000
O     2.938000000     1.909000000     1.524000000
