14
-88.17140
C     0.319000000     1.267000000    -0.734000000
H     0.605000000     2.040000000    -1.443000000
C    -0.593000000     0.242000000    -1.138000000
H    -1.141000000     0.224000000    -2.077000000
C    -0.875000000    -0.822000000    -0.290000000
H    -1.577000000    -1.586000000    -0.586000000
C    -0.243000000    -0.915000000     0.927000000
H    -0.534000000    -1.746000000     1.565000000
C     0.699000000     0.076000000     1.287000000
H     1.230000000     0.017000000     2.234000000
C     0.976000000     1.176000000     0.455000000
C     2.190000000     2.034000000     0.810000000
O     2.557000000     2.891000000     0.032000000
O     2.932000000     1.665000000     1.698000000
