14
-85.90101
C     0.090000000     0.439000000    -1.427000000
H     0.328000000     0.605000000    -2.474000000
C     0.219000000    -0.898000000    -1.037000000
H     0.490000000    -1.701000000    -1.717000000
C     0.128000000    -1.143000000     0.360000000
H     0.321000000    -2.109000000     0.775000000
C    -0.164000000    -0.136000000     1.259000000
H    -0.446000000    -0.337000000     2.290000000
C    -0.294000000     1.172000000     0.826000000
H    -0.734000000     1.907000000     1.494000000
C    -0.122000000     1.480000000    -0.530000000
C    -0.300000000     2.879000000    -0.981000000
O     0.026000000     3.124000000    -2.131000000
O    -0.601000000     3.791000000    -0.245000000
