14
-92.40338
C     0.849000000     0.364000000    -1.172000000
H     1.370000000     0.587000000    -2.100000000
C     0.845000000    -0.925000000    -0.621000000
H     1.373000000    -1.781000000    -1.032000000
C     0.020000000    -1.140000000     0.498000000
H    -0.043000000    -2.166000000     0.918000000
C    -0.625000000    -0.130000000     1.141000000
H    -1.273000000    -0.357000000     1.984000000
C    -0.560000000     1.178000000     0.608000000
H    -1.113000000     1.939000000     1.151000000
C     0.224000000     1.419000000    -0.548000000
C     0.329000000     2.834000000    -1.092000000
O     0.931000000     3.022000000    -2.156000000
O    -0.199000000     3.709000000    -0.471000000
