14
-83.63335
C     0.703000000     0.642000000    -1.236000000
H     0.982000000     1.164000000    -2.149000000
C    -0.261000000    -0.380000000    -1.284000000
H    -0.550000000    -0.772000000    -2.255000000
C    -0.801000000    -0.898000000    -0.112000000
H    -1.639000000    -1.615000000    -0.096000000
C    -0.396000000    -0.422000000     1.129000000
H    -0.889000000    -0.871000000     1.987000000
C     0.564000000     0.585000000     1.204000000
H     0.697000000     0.961000000     2.215000000
C     1.112000000     1.181000000     0.028000000
C     2.174000000     2.181000000     0.225000000
O     2.324000000     2.973000000    -0.632000000
O     2.780000000     2.215000000     1.286000000
