14
-87.08952
C     0.662000000     0.547000000    -1.226000000
H     1.139000000     0.863000000    -2.151000000
C     0.365000000    -0.776000000    -0.997000000
H     0.635000000    -1.578000000    -1.679000000
C    -0.352000000    -1.191000000     0.149000000
H    -0.635000000    -2.159000000     0.232000000
C    -0.796000000    -0.271000000     1.090000000
H    -1.427000000    -0.714000000     1.856000000
C    -0.439000000     1.104000000     0.919000000
H    -0.713000000     1.811000000     1.698000000
C     0.293000000     1.511000000    -0.239000000
C     0.691000000     2.995000000    -0.388000000
O     1.371000000     3.377000000    -1.325000000
O     0.286000000     3.796000000     0.412000000
