14
-82.86888
C    -1.371000000     0.353000000    -0.516000000
H    -2.388000000     0.577000000    -0.824000000
C    -1.040000000    -0.711000000     0.289000000
H    -1.777000000    -1.425000000     0.647000000
C     0.250000000    -1.062000000     0.625000000
H     0.468000000    -2.075000000     1.055000000
C     1.242000000    -0.175000000     0.266000000
H     2.271000000    -0.336000000     0.575000000
C     0.910000000     1.034000000    -0.385000000
H     1.597000000     1.817000000    -0.694000000
C    -0.377000000     1.334000000    -0.694000000
C    -0.616000000     2.640000000    -1.477000000
O    -1.710000000     2.871000000    -1.886000000
O     0.275000000     3.476000000    -1.694000000
