14
-87.22597
C     0.882000000     0.124000000     1.267000000
H     1.600000000     0.128000000     2.083000000
C     1.176000000     0.591000000    -0.028000000
H     2.192000000     0.910000000    -0.248000000
C     0.285000000     0.479000000    -1.132000000
H     0.579000000     0.930000000    -2.122000000
C    -0.945000000    -0.141000000    -0.906000000
H    -1.583000000    -0.316000000    -1.769000000
C    -1.258000000    -0.541000000     0.376000000
H    -2.206000000    -1.059000000     0.501000000
C    -0.354000000    -0.433000000     1.412000000
C    -0.726000000    -0.864000000     2.838000000
O    -1.683000000    -1.616000000     3.060000000
O    -0.105000000    -0.486000000     3.824000000
