14
-90.91649
C     1.044000000     0.438000000     0.930000000
H     1.752000000     0.865000000     1.636000000
C    -0.316000000     0.745000000     1.020000000
H    -0.679000000     1.336000000     1.857000000
C    -1.215000000     0.246000000     0.088000000
H    -2.232000000     0.535000000     0.143000000
C    -0.722000000    -0.537000000    -0.947000000
H    -1.442000000    -1.028000000    -1.597000000
C     0.642000000    -0.844000000    -1.056000000
H     1.017000000    -1.555000000    -1.788000000
C     1.530000000    -0.281000000    -0.135000000
C     3.003000000    -0.602000000    -0.284000000
O     3.316000000    -1.472000000    -1.059000000
O     3.758000000     0.009000000     0.396000000
