14
-88.91978
C    -0.768000000    -0.368000000     1.258000000
H    -1.282000000    -0.437000000     2.213000000
C     0.593000000    -0.082000000     1.162000000
H     1.180000000    -0.055000000     2.076000000
C     1.196000000     0.246000000    -0.023000000
H     2.257000000     0.374000000    -0.038000000
C     0.451000000     0.250000000    -1.174000000
H     0.908000000     0.596000000    -2.098000000
C    -0.873000000    -0.097000000    -1.161000000
H    -1.422000000    -0.084000000    -2.100000000
C    -1.460000000    -0.425000000     0.051000000
C    -2.899000000    -0.950000000    -0.022000000
O    -3.333000000    -1.549000000     0.928000000
O    -3.590000000    -0.736000000    -0.996000000
