14
-86.81690
C     0.084000000    -1.008000000     1.031000000
H     0.034000000    -1.617000000     1.930000000
C     0.738000000     0.212000000     1.076000000
H     1.379000000     0.451000000     1.920000000
C     0.592000000     1.087000000     0.041000000
H     0.999000000     2.107000000     0.103000000
C    -0.190000000     0.751000000    -1.113000000
H    -0.233000000     1.470000000    -1.927000000
C    -0.811000000    -0.498000000    -1.123000000
H    -1.445000000    -0.820000000    -1.945000000
C    -0.700000000    -1.413000000    -0.102000000
C    -1.463000000    -2.720000000    -0.121000000
O    -1.482000000    -3.462000000     0.825000000
O    -2.255000000    -2.926000000    -1.029000000
