14
-79.85932
C    -0.344000000    -1.025000000     0.903000000
H    -0.548000000    -1.782000000     1.656000000
C     0.923000000    -0.506000000     0.614000000
H     1.797000000    -0.780000000     1.199000000
C     1.097000000     0.513000000    -0.309000000
H     2.051000000     0.995000000    -0.521000000
C    -0.010000000     1.056000000    -0.935000000
H     0.196000000     1.817000000    -1.683000000
C    -1.263000000     0.519000000    -0.616000000
H    -2.015000000     0.805000000    -1.346000000
C    -1.457000000    -0.547000000     0.264000000
C    -2.749000000    -1.186000000     0.675000000
O    -2.883000000    -2.098000000     1.462000000
O    -3.797000000    -0.735000000     0.234000000
