14
-90.44682
C     0.355000000    -1.434000000    -0.049000000
H     0.729000000    -2.455000000    -0.074000000
C     1.203000000    -0.367000000     0.251000000
H     2.220000000    -0.516000000     0.606000000
C     0.713000000     0.978000000     0.331000000
H     1.331000000     1.804000000     0.631000000
C    -0.604000000     1.198000000     0.013000000
H    -0.956000000     2.224000000     0.083000000
C    -1.461000000     0.141000000    -0.339000000
H    -2.508000000     0.315000000    -0.574000000
C    -0.974000000    -1.172000000    -0.407000000
C    -1.834000000    -2.374000000    -0.854000000
O    -1.303000000    -3.450000000    -1.138000000
O    -3.019000000    -2.276000000    -0.979000000
