14
-87.89759
C    -0.324000000    -1.213000000    -0.737000000
H    -0.357000000    -2.140000000    -1.303000000
C     0.821000000    -0.443000000    -1.003000000
H     1.501000000    -0.695000000    -1.813000000
C     0.974000000     0.717000000    -0.229000000
H     1.810000000     1.255000000    -0.553000000
C     0.028000000     1.141000000     0.646000000
H     0.175000000     1.965000000     1.338000000
C    -1.047000000     0.282000000     0.963000000
H    -1.725000000     0.572000000     1.761000000
C    -1.224000000    -0.924000000     0.280000000
C    -2.332000000    -1.925000000     0.733000000
O    -2.345000000    -3.113000000     0.395000000
O    -3.234000000    -1.478000000     1.429000000
