14
-86.46917
C    -0.598000000    -1.233000000    -0.495000000
H    -0.858000000    -2.155000000    -1.009000000
C     0.630000000    -0.726000000    -0.882000000
H     1.213000000    -1.244000000    -1.639000000
C     1.024000000     0.514000000    -0.395000000
H     1.947000000     1.038000000    -0.721000000
C     0.270000000     1.201000000     0.498000000
H     0.605000000     2.164000000     0.876000000
C    -0.863000000     0.553000000     1.078000000
H    -1.492000000     1.162000000     1.723000000
C    -1.376000000    -0.625000000     0.518000000
C    -2.650000000    -1.249000000     0.976000000
O    -3.071000000    -2.166000000     0.280000000
O    -3.135000000    -0.960000000     2.031000000
