14
-86.24092
C     1.154000000     0.067000000     0.917000000
H     2.078000000     0.205000000     1.473000000
C     1.082000000     0.713000000    -0.331000000
H     1.978000000     1.192000000    -0.717000000
C    -0.039000000     0.485000000    -1.102000000
H    -0.001000000     0.904000000    -2.070000000
C    -1.174000000    -0.094000000    -0.579000000
H    -2.078000000    -0.164000000    -1.178000000
C    -1.119000000    -0.664000000     0.671000000
H    -2.025000000    -1.141000000     1.038000000
C     0.038000000    -0.591000000     1.455000000
C     0.010000000    -1.181000000     2.873000000
O    -0.893000000    -1.891000000     3.270000000
O     0.898000000    -0.921000000     3.626000000
