14
-83.03572
C     0.337000000    -1.405000000    -0.396000000
H     0.646000000    -2.434000000    -0.556000000
C     1.250000000    -0.384000000    -0.291000000
H     2.332000000    -0.486000000    -0.315000000
C     0.824000000     0.886000000     0.093000000
H     1.521000000     1.652000000     0.182000000
C    -0.470000000     1.055000000     0.551000000
H    -0.846000000     1.970000000     1.001000000
C    -1.449000000     0.087000000     0.306000000
H    -2.515000000     0.279000000     0.396000000
C    -1.037000000    -1.115000000    -0.199000000
C    -2.100000000    -2.116000000    -0.562000000
O    -1.734000000    -3.221000000    -1.004000000
O    -3.249000000    -1.917000000    -0.408000000
