14
-88.07848
C    -1.248000000    -0.229000000    -0.776000000
H    -2.091000000    -0.374000000    -1.447000000
C     0.044000000    -0.705000000    -1.113000000
H     0.254000000    -1.319000000    -1.984000000
C     1.093000000    -0.501000000    -0.204000000
H     2.090000000    -0.895000000    -0.409000000
C     0.864000000     0.188000000     0.909000000
H     1.690000000     0.328000000     1.600000000
C    -0.344000000     0.674000000     1.227000000
H    -0.512000000     1.209000000     2.158000000
C    -1.447000000     0.545000000     0.377000000
C    -2.782000000     1.192000000     0.644000000
O    -3.581000000     1.366000000    -0.229000000
O    -2.979000000     1.508000000     1.830000000
