14
-87.47189
C     1.187000000     0.141000000     0.857000000
H     2.139000000     0.192000000     1.380000000
C     1.006000000     0.750000000    -0.417000000
H     1.721000000     1.450000000    -0.840000000
C    -0.223000000     0.586000000    -1.103000000
H    -0.456000000     1.178000000    -1.962000000
C    -1.113000000    -0.350000000    -0.630000000
H    -2.007000000    -0.575000000    -1.206000000
C    -0.905000000    -0.955000000     0.589000000
H    -1.611000000    -1.727000000     0.887000000
C     0.196000000    -0.695000000     1.410000000
C     0.461000000    -1.347000000     2.793000000
O    -0.092000000    -2.363000000     2.952000000
O     1.204000000    -0.797000000     3.657000000
