14
-88.04432
C    -0.628000000     1.263000000    -0.535000000
H    -1.172000000     2.030000000    -1.080000000
C    -0.055000000     0.237000000    -1.302000000
H    -0.175000000     0.207000000    -2.382000000
C     0.543000000    -0.885000000    -0.662000000
H     1.049000000    -1.672000000    -1.288000000
C     0.634000000    -0.927000000     0.706000000
H     1.124000000    -1.807000000     1.116000000
C     0.006000000     0.048000000     1.451000000
H     0.013000000     0.063000000     2.538000000
C    -0.551000000     1.178000000     0.876000000
C    -1.206000000     2.303000000     1.721000000
O    -1.615000000     3.309000000     1.224000000
O    -1.530000000     2.037000000     2.911000000
