14
-87.77521
C    -0.799000000     0.934000000    -0.815000000
H    -1.514000000     1.513000000    -1.394000000
C    -0.797000000    -0.462000000    -0.942000000
H    -1.386000000    -0.943000000    -1.718000000
C     0.104000000    -1.207000000    -0.190000000
H     0.033000000    -2.294000000    -0.105000000
C     0.848000000    -0.590000000     0.804000000
H     1.397000000    -1.183000000     1.530000000
C     0.827000000     0.804000000     0.906000000
H     1.371000000     1.227000000     1.747000000
C     0.002000000     1.568000000     0.089000000
C    -0.059000000     3.067000000     0.275000000
O    -0.521000000     3.727000000    -0.639000000
O     0.192000000     3.565000000     1.330000000
