14
-82.55268
C    -0.465000000     1.143000000    -0.792000000
H    -0.844000000     1.881000000    -1.495000000
C    -0.451000000    -0.147000000    -1.198000000
H    -0.707000000    -0.297000000    -2.244000000
C    -0.088000000    -1.217000000    -0.345000000
H    -0.153000000    -2.271000000    -0.717000000
C     0.375000000    -0.820000000     0.926000000
H     0.742000000    -1.625000000     1.558000000
C     0.518000000     0.527000000     1.306000000
H     0.899000000     0.750000000     2.300000000
C     0.056000000     1.559000000     0.432000000
C     0.106000000     3.027000000     0.790000000
O    -0.207000000     3.822000000    -0.052000000
O     0.799000000     3.363000000     1.719000000
