14
-89.53781
C    -0.313000000     1.448000000    -0.261000000
H    -0.370000000     2.489000000    -0.566000000
C    -0.401000000     0.382000000    -1.170000000
H    -0.557000000     0.572000000    -2.229000000
C    -0.133000000    -0.908000000    -0.847000000
H    -0.119000000    -1.685000000    -1.616000000
C     0.157000000    -1.216000000     0.479000000
H     0.443000000    -2.256000000     0.620000000
C     0.208000000    -0.211000000     1.438000000
H     0.512000000    -0.470000000     2.450000000
C     0.003000000     1.161000000     1.080000000
C     0.033000000     2.171000000     2.225000000
O    -0.727000000     3.151000000     2.252000000
O     0.752000000     1.976000000     3.247000000
