14
-90.57394
C    -0.746000000     1.141000000    -0.652000000
H    -1.282000000     1.832000000    -1.298000000
C    -0.987000000    -0.246000000    -0.819000000
H    -1.719000000    -0.634000000    -1.522000000
C    -0.272000000    -1.177000000    -0.116000000
H    -0.412000000    -2.215000000    -0.156000000
C     0.690000000    -0.743000000     0.761000000
H     1.141000000    -1.582000000     1.284000000
C     1.054000000     0.576000000     0.868000000
H     1.939000000     0.848000000     1.438000000
C     0.326000000     1.540000000     0.189000000
C     0.774000000     2.998000000     0.194000000
O     0.112000000     3.770000000    -0.513000000
O     1.655000000     3.297000000     0.963000000
