14
-85.24067
C    -0.493000000     1.062000000    -0.887000000
H    -0.910000000     1.773000000    -1.596000000
C    -0.443000000    -0.309000000    -1.266000000
H    -0.853000000    -0.503000000    -2.254000000
C     0.117000000    -1.212000000    -0.282000000
H     0.016000000    -2.282000000    -0.376000000
C     0.470000000    -0.778000000     1.017000000
H     0.777000000    -1.474000000     1.793000000
C     0.506000000     0.574000000     1.289000000
H     0.722000000     0.986000000     2.271000000
C    -0.103000000     1.518000000     0.420000000
C    -0.349000000     2.984000000     0.786000000
O    -0.737000000     3.698000000    -0.131000000
O    -0.396000000     3.274000000     1.958000000
