14
-84.68147
C    -0.734000000     0.778000000    -0.962000000
H    -1.104000000     1.381000000    -1.787000000
C    -0.312000000    -0.493000000    -1.199000000
H    -0.346000000    -0.856000000    -2.223000000
C     0.348000000    -1.151000000    -0.198000000
H     0.835000000    -2.062000000    -0.448000000
C     0.511000000    -0.628000000     1.070000000
H     1.011000000    -1.146000000     1.884000000
C    -0.012000000     0.675000000     1.318000000
H     0.272000000     1.167000000     2.245000000
C    -0.640000000     1.426000000     0.330000000
C    -1.067000000     2.879000000     0.374000000
O    -1.789000000     3.288000000    -0.533000000
O    -0.769000000     3.618000000     1.259000000
