14
-86.88911
C     1.061000000     0.486000000     0.872000000
H     1.952000000     0.858000000     1.370000000
C     0.800000000     0.915000000    -0.446000000
H     1.316000000     1.773000000    -0.869000000
C    -0.284000000     0.411000000    -1.132000000
H    -0.544000000     0.780000000    -2.104000000
C    -1.017000000    -0.573000000    -0.544000000
H    -1.828000000    -1.009000000    -1.121000000
C    -0.732000000    -1.093000000     0.709000000
H    -1.406000000    -1.822000000     1.153000000
C     0.249000000    -0.498000000     1.514000000
C     0.603000000    -1.064000000     2.918000000
O     0.084000000    -2.073000000     3.421000000
O     1.642000000    -0.649000000     3.402000000
