14
-83.83918
C    -0.364000000     0.689000000    -1.272000000
H    -0.682000000     1.104000000    -2.225000000
C    -0.047000000    -0.662000000    -1.216000000
H     0.000000000    -1.318000000    -2.080000000
C     0.210000000    -1.162000000     0.116000000
H     0.372000000    -2.312000000     0.229000000
C     0.341000000    -0.381000000     1.183000000
H     0.663000000    -0.793000000     2.136000000
C     0.157000000     0.998000000     1.055000000
H     0.358000000     1.620000000     1.923000000
C    -0.270000000     1.514000000    -0.157000000
C    -0.582000000     2.986000000    -0.292000000
O    -0.455000000     3.625000000    -1.307000000
O    -1.196000000     3.519000000     0.638000000
