14
-86.25624
C    -0.782000000     0.453000000    -1.199000000
H    -1.370000000     0.787000000    -2.050000000
C    -0.296000000    -0.803000000    -1.040000000
H    -0.424000000    -1.470000000    -1.889000000
C     0.497000000    -1.142000000     0.060000000
H     0.980000000    -2.157000000     0.142000000
C     0.629000000    -0.221000000     1.042000000
H     1.242000000    -0.468000000     1.905000000
C     0.101000000     1.047000000     0.964000000
H     0.123000000     1.616000000     1.889000000
C    -0.592000000     1.459000000    -0.175000000
C    -1.032000000     2.891000000    -0.239000000
O    -1.519000000     3.284000000    -1.263000000
O    -0.812000000     3.608000000     0.714000000
