14
-85.17403
C    -0.419000000     0.650000000    -1.280000000
H    -0.691000000     1.055000000    -2.252000000
C    -0.454000000    -0.737000000    -1.062000000
H    -0.726000000    -1.397000000    -1.882000000
C     0.095000000    -1.196000000     0.167000000
H     0.139000000    -2.315000000     0.247000000
C     0.509000000    -0.347000000     1.185000000
H     0.885000000    -0.733000000     2.130000000
C     0.375000000     1.023000000     0.958000000
H     0.603000000     1.752000000     1.732000000
C    -0.022000000     1.547000000    -0.293000000
C    -0.045000000     3.013000000    -0.547000000
O    -0.490000000     3.471000000    -1.581000000
O     0.282000000     3.846000000     0.269000000
