14
-87.70839
C     0.917000000    -0.002000000    -1.148000000
H     1.580000000    -0.083000000    -2.005000000
C     0.110000000    -1.056000000    -0.821000000
H     0.077000000    -1.985000000    -1.384000000
C    -0.774000000    -0.947000000     0.260000000
H    -1.439000000    -1.780000000     0.494000000
C    -0.655000000     0.169000000     1.086000000
H    -1.182000000     0.195000000     2.036000000
C     0.086000000     1.318000000     0.737000000
H     0.144000000     2.152000000     1.431000000
C     0.942000000     1.175000000    -0.375000000
C     1.756000000     2.367000000    -0.928000000
O     2.460000000     2.274000000    -1.907000000
O     1.868000000     3.303000000    -0.165000000
