14
-86.37691
C     0.022000000     0.434000000    -1.500000000
H     0.047000000     0.485000000    -2.586000000
C    -0.996000000    -0.296000000    -0.829000000
H    -1.871000000    -0.684000000    -1.343000000
C    -0.903000000    -0.666000000     0.532000000
H    -1.782000000    -1.142000000     1.003000000
C     0.156000000    -0.183000000     1.272000000
H     0.155000000    -0.446000000     2.327000000
C     1.188000000     0.535000000     0.608000000
H     2.002000000     0.897000000     1.231000000
C     1.155000000     0.859000000    -0.746000000
C     2.342000000     1.551000000    -1.312000000
O     2.424000000     1.505000000    -2.528000000
O     3.112000000     2.278000000    -0.692000000
