14
-89.93999
C     0.341000000    -0.160000000    -1.495000000
H     0.602000000    -0.395000000    -2.524000000
C    -0.545000000    -0.953000000    -0.797000000
H    -0.969000000    -1.848000000    -1.244000000
C    -0.807000000    -0.698000000     0.593000000
H    -1.472000000    -1.481000000     1.048000000
C    -0.200000000     0.417000000     1.187000000
H    -0.325000000     0.494000000     2.264000000
C     0.591000000     1.293000000     0.444000000
H     1.113000000     2.112000000     0.932000000
C     0.917000000     0.954000000    -0.882000000
C     1.991000000     1.771000000    -1.522000000
O     2.105000000     1.654000000    -2.743000000
O     2.701000000     2.550000000    -0.909000000
