14
-85.99503
C     0.570000000     0.026000000    -1.378000000
H     0.842000000    -0.123000000    -2.420000000
C    -0.650000000    -0.561000000    -0.956000000
H    -1.340000000    -1.057000000    -1.635000000
C    -1.067000000    -0.464000000     0.339000000
H    -2.038000000    -0.824000000     0.722000000
C    -0.274000000     0.103000000     1.298000000
H    -0.533000000     0.212000000     2.348000000
C     0.958000000     0.620000000     0.946000000
H     1.526000000     1.093000000     1.743000000
C     1.324000000     0.680000000    -0.407000000
C     2.594000000     1.315000000    -0.842000000
O     3.135000000     1.026000000    -1.884000000
O     3.112000000     2.148000000    -0.120000000
