14
-88.96133
C    -0.979000000    -0.352000000    -0.970000000
H    -1.848000000    -0.752000000    -1.485000000
C    -1.084000000    -0.394000000     0.411000000
H    -2.029000000    -0.656000000     0.881000000
C    -0.080000000    -0.070000000     1.236000000
H    -0.196000000    -0.202000000     2.322000000
C     1.112000000     0.448000000     0.650000000
H     1.927000000     0.819000000     1.266000000
C     1.188000000     0.593000000    -0.753000000
H     2.047000000     1.082000000    -1.203000000
C     0.174000000     0.047000000    -1.573000000
C     0.213000000     0.052000000    -3.119000000
O    -0.687000000    -0.486000000    -3.808000000
O     1.158000000     0.589000000    -3.652000000
