14
-91.58648
C    -0.966000000    -0.727000000    -0.869000000
H    -1.787000000    -1.302000000    -1.289000000
C    -1.191000000    -0.314000000     0.423000000
H    -2.106000000    -0.559000000     0.958000000
C    -0.210000000     0.411000000     1.096000000
H    -0.314000000     0.712000000     2.098000000
C     0.994000000     0.762000000     0.497000000
H     1.765000000     1.247000000     1.091000000
C     1.237000000     0.371000000    -0.783000000
H     2.214000000     0.461000000    -1.250000000
C     0.255000000    -0.407000000    -1.483000000
C     0.634000000    -0.947000000    -2.859000000
O    -0.200000000    -1.429000000    -3.601000000
O     1.852000000    -0.989000000    -3.111000000
