14
-84.53038
C    -0.241000000     0.310000000    -1.454000000
H    -0.746000000     0.466000000    -2.403000000
C    -0.725000000     1.012000000    -0.361000000
H    -1.474000000     1.794000000    -0.449000000
C    -0.381000000     0.648000000     0.942000000
H    -0.730000000     1.333000000     1.746000000
C     0.508000000    -0.402000000     1.131000000
H     0.899000000    -0.584000000     2.129000000
C     0.979000000    -1.107000000    -0.001000000
H     1.776000000    -1.831000000     0.143000000
C     0.557000000    -0.804000000    -1.282000000
C     0.916000000    -1.618000000    -2.429000000
O     0.575000000    -1.336000000    -3.535000000
O     1.550000000    -2.644000000    -2.188000000
