14
-78.39994
C    -0.778000000     1.215000000     0.331000000
H    -1.290000000     2.133000000     0.608000000
C     0.027000000     0.406000000     1.215000000
H     0.238000000     0.616000000     2.260000000
C     0.647000000    -0.678000000     0.714000000
H     1.276000000    -1.334000000     1.404000000
C     0.591000000    -1.093000000    -0.579000000
H     0.896000000    -2.125000000    -0.734000000
C    -0.066000000    -0.233000000    -1.501000000
H    -0.081000000    -0.568000000    -2.535000000
C    -0.766000000     0.966000000    -1.025000000
C    -1.439000000     1.922000000    -1.964000000
O    -2.121000000     2.802000000    -1.508000000
O    -1.385000000     1.747000000    -3.159000000
