14
-87.21406
C    -0.624000000     1.144000000    -0.814000000
H    -1.194000000     1.956000000    -1.258000000
C    -0.842000000     0.859000000     0.588000000
H    -1.469000000     1.483000000     1.220000000
C    -0.185000000    -0.225000000     1.203000000
H    -0.241000000    -0.445000000     2.337000000
C     0.640000000    -1.048000000     0.440000000
H     1.093000000    -1.920000000     0.905000000
C     0.869000000    -0.754000000    -0.889000000
H     1.433000000    -1.469000000    -1.481000000
C     0.244000000     0.340000000    -1.536000000
C     0.423000000     0.526000000    -2.986000000
O     0.154000000     1.604000000    -3.610000000
O     1.073000000    -0.328000000    -3.552000000
