14
-85.09878
C     0.173000000     1.389000000    -0.467000000
H     0.479000000     2.408000000    -0.690000000
C    -0.085000000     0.991000000     0.844000000
H    -0.063000000     1.769000000     1.602000000
C    -0.158000000    -0.303000000     1.137000000
H    -0.327000000    -0.529000000     2.170000000
C    -0.152000000    -1.266000000     0.207000000
H    -0.262000000    -2.294000000     0.543000000
C     0.006000000    -0.922000000    -1.125000000
H     0.031000000    -1.679000000    -1.905000000
C     0.200000000     0.421000000    -1.452000000
C     0.559000000     0.789000000    -2.950000000
O     0.555000000     1.960000000    -3.209000000
O     0.808000000    -0.091000000    -3.724000000
