14
-83.46726
C    -0.693000000     1.129000000    -0.556000000
H    -1.046000000     2.136000000    -0.764000000
C    -0.198000000     1.039000000     0.704000000
H    -0.158000000     1.837000000     1.440000000
C     0.282000000    -0.189000000     1.135000000
H     0.492000000    -0.301000000     2.181000000
C     0.467000000    -1.279000000     0.214000000
H     0.888000000    -2.208000000     0.590000000
C     0.160000000    -1.033000000    -1.102000000
H     0.321000000    -1.784000000    -1.871000000
C    -0.525000000     0.090000000    -1.515000000
C    -0.843000000     0.424000000    -2.897000000
O    -1.060000000     1.564000000    -3.212000000
O    -0.889000000    -0.517000000    -3.694000000
