14
-90.97068
C     1.243000000     0.518000000     0.631000000
H     2.214000000     0.848000000     0.991000000
C     0.899000000     0.756000000    -0.708000000
H     1.561000000     1.403000000    -1.279000000
C    -0.304000000     0.208000000    -1.193000000
H    -0.636000000     0.413000000    -2.191000000
C    -1.069000000    -0.622000000    -0.388000000
H    -1.981000000    -1.015000000    -0.829000000
C    -0.695000000    -0.867000000     0.990000000
H    -1.363000000    -1.460000000     1.611000000
C     0.457000000    -0.322000000     1.469000000
C     0.788000000    -0.641000000     2.912000000
O    -0.027000000    -1.299000000     3.527000000
O     1.812000000    -0.249000000     3.414000000
