14
-90.60867
C    -1.148000000     0.437000000    -0.865000000
H    -2.021000000     0.762000000    -1.426000000
C    -0.594000000     1.180000000     0.163000000
H    -1.067000000     2.055000000     0.601000000
C     0.549000000     0.720000000     0.793000000
H     0.984000000     1.251000000     1.628000000
C     1.126000000    -0.464000000     0.432000000
H     2.027000000    -0.789000000     0.947000000
C     0.516000000    -1.304000000    -0.468000000
H     0.965000000    -2.268000000    -0.694000000
C    -0.679000000    -0.879000000    -1.136000000
C    -1.449000000    -1.805000000    -2.063000000
O    -2.664000000    -1.667000000    -2.162000000
O    -0.907000000    -2.785000000    -2.600000000
