14
-87.20144
C    -1.124000000     0.996000000    -0.167000000
H    -1.950000000     1.702000000    -0.145000000
C    -0.495000000     0.644000000     1.013000000
H    -0.885000000     1.112000000     1.913000000
C     0.526000000    -0.282000000     1.093000000
H     1.107000000    -0.430000000     1.999000000
C     0.972000000    -0.831000000    -0.116000000
H     1.801000000    -1.524000000     0.004000000
C     0.377000000    -0.501000000    -1.324000000
H     0.862000000    -0.930000000    -2.197000000
C    -0.680000000     0.420000000    -1.385000000
C    -1.304000000     0.720000000    -2.722000000
O    -1.900000000     1.744000000    -2.859000000
O    -1.205000000    -0.039000000    -3.675000000
