14
-85.96698
C     0.589000000     0.455000000     1.212000000
H     1.210000000     0.943000000     1.959000000
C     0.634000000     1.086000000    -0.064000000
H     1.222000000     2.000000000    -0.109000000
C     0.066000000     0.518000000    -1.147000000
H     0.114000000     0.882000000    -2.155000000
C    -0.742000000    -0.640000000    -0.941000000
H    -1.320000000    -1.088000000    -1.745000000
C    -0.845000000    -1.196000000     0.329000000
H    -1.565000000    -2.005000000     0.428000000
C    -0.144000000    -0.666000000     1.413000000
C    -0.145000000    -1.350000000     2.763000000
O    -0.632000000    -2.428000000     2.978000000
O     0.301000000    -0.741000000     3.728000000
