14
-89.92704
C    -1.129000000    -0.267000000    -0.960000000
H    -1.904000000    -0.339000000    -1.718000000
C    -1.217000000     0.655000000     0.120000000
H    -2.109000000     1.181000000     0.448000000
C    -0.136000000     0.784000000     0.935000000
H    -0.155000000     1.422000000     1.783000000
C     1.044000000     0.046000000     0.717000000
H     1.939000000     0.228000000     1.307000000
C     1.160000000    -0.881000000    -0.315000000
H     2.056000000    -1.473000000    -0.481000000
C     0.048000000    -0.948000000    -1.230000000
C     0.177000000    -1.848000000    -2.487000000
O    -0.736000000    -1.883000000    -3.281000000
O     1.127000000    -2.636000000    -2.609000000
