14
-88.45441
C     0.783000000    -1.039000000     0.720000000
H     1.337000000    -1.720000000     1.361000000
C    -0.096000000    -0.117000000     1.345000000
H    -0.151000000    -0.167000000     2.430000000
C    -0.804000000     0.781000000     0.592000000
H    -1.581000000     1.414000000     1.043000000
C    -0.676000000     0.769000000    -0.785000000
H    -1.200000000     1.479000000    -1.419000000
C     0.141000000    -0.155000000    -1.360000000
H     0.324000000    -0.096000000    -2.430000000
C     0.963000000    -1.083000000    -0.649000000
C     1.858000000    -2.088000000    -1.439000000
O     2.639000000    -2.859000000    -0.797000000
O     1.788000000    -2.270000000    -2.653000000
