14
-83.79524
C     0.209000000    -1.441000000     0.223000000
H     0.263000000    -2.495000000     0.479000000
C    -0.694000000    -0.596000000     0.968000000
H    -1.293000000    -1.019000000     1.771000000
C    -0.721000000     0.724000000     0.680000000
H    -1.547000000     1.339000000     1.098000000
C     0.168000000     1.339000000    -0.288000000
H     0.148000000     2.420000000    -0.401000000
C     1.010000000     0.533000000    -0.997000000
H     1.665000000     0.980000000    -1.741000000
C     0.998000000    -0.850000000    -0.830000000
C     1.805000000    -1.807000000    -1.727000000
O     1.651000000    -3.009000000    -1.705000000
O     2.364000000    -1.342000000    -2.752000000
