14
-80.33462
C     1.321000000    -0.129000000     0.562000000
H     2.307000000    -0.206000000     1.012000000
C     0.175000000    -0.018000000     1.317000000
H     0.139000000    -0.260000000     2.377000000
C    -1.021000000     0.162000000     0.656000000
H    -1.981000000     0.306000000     1.204000000
C    -1.024000000     0.199000000    -0.723000000
H    -1.959000000     0.312000000    -1.266000000
C     0.098000000     0.019000000    -1.408000000
H     0.075000000     0.179000000    -2.483000000
C     1.327000000    -0.148000000    -0.835000000
C     2.594000000    -0.481000000    -1.643000000
O     3.468000000    -1.194000000    -1.143000000
O     2.615000000    -0.345000000    -2.841000000
