14
-86.97451
C    -0.736000000    -0.970000000     0.826000000
H    -1.090000000    -1.722000000     1.527000000
C     0.165000000    -0.042000000     1.320000000
H     0.368000000    -0.084000000     2.387000000
C     0.840000000     0.825000000     0.429000000
H     1.505000000     1.601000000     0.806000000
C     0.586000000     0.729000000    -0.928000000
H     1.041000000     1.330000000    -1.711000000
C    -0.443000000    -0.164000000    -1.370000000
H    -0.785000000    -0.039000000    -2.394000000
C    -1.108000000    -1.025000000    -0.541000000
C    -2.000000000    -2.079000000    -1.118000000
O    -2.274000000    -3.018000000    -0.409000000
O    -2.468000000    -2.020000000    -2.231000000
