14
-88.15310
C    -0.909000000    -0.743000000     0.904000000
H    -1.524000000    -1.157000000     1.700000000
C    -0.050000000     0.327000000     1.270000000
H    -0.093000000     0.651000000     2.307000000
C     0.759000000     0.926000000     0.336000000
H     1.317000000     1.740000000     0.654000000
C     0.735000000     0.463000000    -0.971000000
H     1.332000000     0.960000000    -1.731000000
C    -0.064000000    -0.651000000    -1.299000000
H     0.053000000    -1.133000000    -2.267000000
C    -0.913000000    -1.218000000    -0.371000000
C    -1.858000000    -2.379000000    -0.791000000
O    -2.204000000    -3.180000000     0.031000000
O    -1.954000000    -2.625000000    -1.986000000
