14
-91.03750
C    -0.092000000    -1.398000000     0.461000000
H    -0.253000000    -2.402000000     0.846000000
C    -0.413000000    -0.254000000     1.147000000
H    -0.661000000    -0.399000000     2.195000000
C    -0.197000000     1.048000000     0.663000000
H    -0.493000000     1.946000000     1.092000000
C     0.277000000     1.195000000    -0.682000000
H     0.396000000     2.204000000    -1.068000000
C     0.629000000     0.037000000    -1.382000000
H     1.038000000     0.141000000    -2.384000000
C     0.441000000    -1.259000000    -0.893000000
C     0.720000000    -2.470000000    -1.702000000
O     0.854000000    -3.513000000    -1.049000000
O     0.907000000    -2.326000000    -2.938000000
