14
-85.21434
C     0.396000000     0.133000000     1.448000000
H     0.591000000     0.472000000     2.462000000
C     0.979000000     0.935000000     0.399000000
H     1.789000000     1.592000000     0.706000000
C     0.539000000     0.675000000    -0.927000000
H     0.847000000     1.311000000    -1.726000000
C    -0.248000000    -0.429000000    -1.182000000
H    -0.567000000    -0.621000000    -2.203000000
C    -0.793000000    -1.228000000    -0.209000000
H    -1.422000000    -2.072000000    -0.478000000
C    -0.523000000    -0.894000000     1.144000000
C    -1.131000000    -1.683000000     2.276000000
O    -2.183000000    -2.263000000     2.210000000
O    -0.587000000    -1.568000000     3.363000000
