14
-84.87479
C     0.709000000    -1.275000000    -0.444000000
H     1.220000000    -2.198000000    -0.707000000
C    -0.420000000    -1.167000000     0.397000000
H    -0.821000000    -2.026000000     0.930000000
C    -1.030000000    -0.031000000     0.654000000
H    -1.836000000    -0.076000000     1.336000000
C    -0.515000000     1.190000000     0.178000000
H    -0.951000000     2.121000000     0.530000000
C     0.641000000     1.156000000    -0.615000000
H     1.158000000     2.044000000    -0.971000000
C     1.217000000    -0.060000000    -0.973000000
C     2.463000000    -0.099000000    -1.815000000
O     3.380000000    -0.854000000    -1.509000000
O     2.662000000     0.669000000    -2.758000000
