14
-83.26761
C     1.246000000    -0.792000000    -0.094000000
H     2.038000000    -1.530000000    -0.186000000
C     0.265000000    -0.971000000     0.840000000
H     0.336000000    -1.771000000     1.573000000
C    -0.855000000    -0.154000000     0.812000000
H    -1.465000000    -0.157000000     1.590000000
C    -1.018000000     0.711000000    -0.190000000
H    -1.907000000     1.336000000    -0.163000000
C    -0.006000000     0.960000000    -1.130000000
H    -0.152000000     1.725000000    -1.888000000
C     1.145000000     0.189000000    -1.027000000
C     2.345000000     0.586000000    -1.881000000
O     3.403000000     0.089000000    -1.592000000
O     2.199000000     1.303000000    -2.879000000
