14
-87.52815
C     0.707000000    -1.209000000    -0.407000000
H     1.236000000    -2.156000000    -0.466000000
C    -0.102000000    -1.059000000     0.706000000
H    -0.142000000    -1.832000000     1.469000000
C    -0.723000000     0.155000000     0.896000000
H    -1.308000000     0.340000000     1.817000000
C    -0.620000000     1.200000000     0.035000000
H    -1.017000000     2.172000000     0.315000000
C     0.154000000     1.051000000    -1.108000000
H     0.428000000     1.927000000    -1.690000000
C     0.821000000    -0.163000000    -1.341000000
C     1.735000000    -0.441000000    -2.479000000
O     2.184000000    -1.543000000    -2.496000000
O     1.945000000     0.435000000    -3.315000000
