14
-84.09992
C     0.164000000     1.448000000     0.296000000
H     0.422000000     2.466000000     0.576000000
C     0.450000000     0.442000000     1.217000000
H     0.982000000     0.685000000     2.132000000
C     0.110000000    -0.879000000     0.864000000
H     0.302000000    -1.686000000     1.648000000
C    -0.378000000    -1.191000000    -0.376000000
H    -0.576000000    -2.240000000    -0.581000000
C    -0.600000000    -0.133000000    -1.305000000
H    -1.051000000    -0.375000000    -2.264000000
C    -0.343000000     1.198000000    -0.986000000
C    -0.545000000     2.316000000    -2.010000000
O    -0.304000000     3.421000000    -1.674000000
O    -1.104000000     2.072000000    -3.024000000
