14
-83.79776
C     0.540000000     0.491000000     1.317000000
H     0.951000000     0.946000000     2.214000000
C     0.685000000     1.139000000     0.069000000
H     1.207000000     2.092000000     0.047000000
C     0.205000000     0.554000000    -1.109000000
H     0.172000000     1.151000000    -2.051000000
C    -0.528000000    -0.654000000    -1.050000000
H    -0.961000000    -1.098000000    -1.943000000
C    -0.762000000    -1.219000000     0.204000000
H    -1.204000000    -2.211000000     0.256000000
C    -0.186000000    -0.680000000     1.373000000
C    -0.571000000    -1.339000000     2.705000000
O    -1.432000000    -2.186000000     2.825000000
O    -0.045000000    -0.996000000     3.719000000
