14
-88.97146
C     1.116000000     0.056000000     0.960000000
H     1.854000000     0.004000000     1.757000000
C     0.094000000    -0.892000000     0.904000000
H     0.046000000    -1.638000000     1.694000000
C    -0.900000000    -0.828000000    -0.053000000
H    -1.745000000    -1.559000000    -0.101000000
C    -0.829000000     0.146000000    -1.057000000
H    -1.562000000     0.143000000    -1.860000000
C     0.196000000     1.049000000    -0.941000000
H     0.314000000     1.783000000    -1.734000000
C     1.168000000     1.033000000     0.011000000
C     2.217000000     2.089000000     0.141000000
O     3.074000000     1.999000000     1.026000000
O     2.164000000     3.010000000    -0.616000000
