14
-89.29013
C     0.827000000     1.054000000     0.702000000
H     1.407000000     1.746000000     1.306000000
C     0.592000000    -0.209000000     1.245000000
H     0.788000000    -0.410000000     2.295000000
C    -0.135000000    -1.114000000     0.512000000
H    -0.230000000    -2.117000000     0.917000000
C    -0.594000000    -0.778000000    -0.789000000
H    -1.086000000    -1.512000000    -1.422000000
C    -0.286000000     0.485000000    -1.342000000
H    -0.546000000     0.664000000    -2.382000000
C     0.371000000     1.400000000    -0.585000000
C     0.583000000     2.794000000    -1.132000000
O     1.483000000     3.576000000    -0.781000000
O    -0.095000000     3.116000000    -2.113000000
