14
-85.76187
C     1.113000000    -0.199000000     0.874000000
H     1.779000000    -0.430000000     1.702000000
C     0.086000000    -1.073000000     0.612000000
H     0.034000000    -2.050000000     1.085000000
C    -0.916000000    -0.761000000    -0.225000000
H    -1.759000000    -1.459000000    -0.503000000
C    -0.926000000     0.476000000    -0.878000000
H    -1.699000000     0.557000000    -1.638000000
C     0.153000000     1.336000000    -0.694000000
H     0.198000000     2.279000000    -1.233000000
C     1.164000000     1.014000000     0.265000000
C     2.231000000     1.995000000     0.674000000
O     3.102000000     1.635000000     1.435000000
O     2.182000000     3.144000000     0.297000000
