14
-68.69867
C     0.486000000     0.919000000     0.949000000
H     0.884000000     1.491000000     1.784000000
C     0.547000000    -0.417000000     1.015000000
H     0.970000000    -0.821000000     1.932000000
C    -0.039000000    -1.247000000     0.116000000
H    -0.111000000    -2.393000000     0.259000000
C    -0.530000000    -0.705000000    -1.012000000
H    -0.945000000    -1.383000000    -1.753000000
C    -0.415000000     0.734000000    -1.189000000
H    -0.826000000     1.215000000    -2.073000000
C     0.049000000     1.593000000    -0.207000000
C     0.019000000     3.125000000    -0.202000000
O    -0.074000000     3.728000000     0.831000000
O    -0.343000000     3.601000000    -1.206000000
