14
-88.12094
C    -0.550000000     0.431000000     1.242000000
H    -0.924000000     1.026000000     2.072000000
C     0.051000000     1.233000000     0.274000000
H     0.100000000     2.314000000     0.376000000
C     0.583000000     0.626000000    -0.840000000
H     1.104000000     1.263000000    -1.554000000
C     0.488000000    -0.735000000    -1.086000000
H     0.832000000    -1.149000000    -2.031000000
C    -0.194000000    -1.498000000    -0.106000000
H    -0.251000000    -2.568000000    -0.287000000
C    -0.653000000    -0.960000000     1.096000000
C    -1.472000000    -1.687000000     2.047000000
O    -1.792000000    -2.893000000     1.785000000
O    -1.963000000    -1.157000000     3.035000000
