14
-91.70560
C    -0.774000000    -0.256000000     1.268000000
H    -1.367000000    -0.484000000     2.150000000
C    -0.758000000    -1.108000000     0.187000000
H    -1.128000000    -2.125000000     0.289000000
C     0.028000000    -0.785000000    -0.932000000
H     0.043000000    -1.509000000    -1.737000000
C     0.702000000     0.428000000    -1.001000000
H     1.294000000     0.743000000    -1.857000000
C     0.629000000     1.319000000     0.091000000
H     1.130000000     2.277000000    -0.030000000
C    -0.076000000     0.957000000     1.259000000
C    -0.145000000     1.848000000     2.454000000
O    -0.852000000     1.550000000     3.445000000
O     0.362000000     2.964000000     2.441000000
