14
-88.66267
C    -0.182000000    -0.362000000     1.443000000
H    -0.215000000    -0.768000000     2.451000000
C    -0.237000000    -1.205000000     0.339000000
H    -0.252000000    -2.284000000     0.474000000
C    -0.123000000    -0.738000000    -0.996000000
H    -0.175000000    -1.492000000    -1.811000000
C     0.009000000     0.623000000    -1.191000000
H     0.050000000     1.069000000    -2.182000000
C     0.097000000     1.474000000    -0.132000000
H     0.204000000     2.541000000    -0.309000000
C     0.009000000     1.039000000     1.206000000
C     0.249000000     1.925000000     2.382000000
O    -0.021000000     1.681000000     3.554000000
O     0.883000000     2.908000000     2.070000000
