14
-88.78355
C    -0.482000000    -0.717000000     1.246000000
H    -0.903000000    -1.313000000     2.051000000
C    -0.702000000    -1.105000000    -0.047000000
H    -1.328000000    -1.979000000    -0.208000000
C    -0.081000000    -0.400000000    -1.124000000
H    -0.129000000    -0.868000000    -2.087000000
C     0.701000000     0.694000000    -0.905000000
H     1.190000000     1.210000000    -1.728000000
C     0.856000000     1.190000000     0.368000000
H     1.401000000     2.122000000     0.495000000
C     0.248000000     0.495000000     1.464000000
C     0.259000000     1.038000000     2.829000000
O    -0.172000000     0.406000000     3.804000000
O     0.553000000     2.228000000     2.911000000
