14
-92.27773
C    -0.223000000    -0.334000000     1.386000000
H    -0.376000000    -0.574000000     2.435000000
C     0.066000000    -1.267000000     0.415000000
H     0.223000000    -2.305000000     0.696000000
C     0.266000000    -0.836000000    -0.900000000
H     0.435000000    -1.553000000    -1.689000000
C     0.142000000     0.512000000    -1.158000000
H     0.182000000     0.845000000    -2.192000000
C    -0.215000000     1.455000000    -0.196000000
H    -0.343000000     2.489000000    -0.506000000
C    -0.424000000     1.047000000     1.126000000
C    -0.603000000     2.050000000     2.236000000
O    -0.877000000     1.630000000     3.357000000
O    -0.662000000     3.271000000     2.001000000
