14
-88.22777
C    -1.017000000     0.142000000     1.092000000
H    -1.817000000     0.203000000     1.825000000
C    -0.933000000    -0.853000000     0.136000000
H    -1.716000000    -1.601000000     0.045000000
C     0.114000000    -0.960000000    -0.814000000
H     0.010000000    -1.737000000    -1.668000000
C     1.059000000     0.091000000    -0.836000000
H     1.822000000     0.205000000    -1.601000000
C     0.955000000     1.129000000     0.111000000
H     1.754000000     1.858000000     0.219000000
C    -0.041000000     1.107000000     1.103000000
C    -0.124000000     2.176000000     2.114000000
O    -1.049000000     2.202000000     2.913000000
O     0.679000000     3.125000000     2.070000000
