14
-85.71076
C    -0.641000000     0.302000000     1.265000000
H    -1.205000000     0.400000000     2.189000000
C    -0.773000000    -0.897000000     0.603000000
H    -1.495000000    -1.648000000     0.911000000
C    -0.081000000    -1.064000000    -0.610000000
H    -0.230000000    -1.986000000    -1.161000000
C     0.743000000    -0.075000000    -1.066000000
H     1.279000000    -0.146000000    -2.009000000
C     0.894000000     1.134000000    -0.415000000
H     1.607000000     1.927000000    -0.625000000
C     0.170000000     1.382000000     0.798000000
C     0.172000000     2.634000000     1.531000000
O    -0.342000000     2.704000000     2.608000000
O     0.808000000     3.634000000     1.099000000
