14
-83.93139
C    -0.831000000     0.077000000     1.221000000
H    -1.450000000     0.009000000     2.112000000
C    -0.731000000    -1.047000000     0.384000000
H    -1.345000000    -1.929000000     0.545000000
C     0.210000000    -0.975000000    -0.638000000
H     0.460000000    -1.759000000    -1.377000000
C     0.832000000     0.207000000    -0.981000000
H     1.492000000     0.115000000    -1.839000000
C     0.722000000     1.311000000    -0.199000000
H     1.158000000     2.252000000    -0.524000000
C    -0.204000000     1.273000000     0.862000000
C    -0.497000000     2.564000000     1.571000000
O    -0.907000000     2.441000000     2.702000000
O    -0.121000000     3.682000000     1.184000000
