14
-90.74697
C     1.024000000     0.912000000    -0.589000000
H     1.903000000     1.439000000    -0.951000000
C     1.120000000     0.184000000     0.606000000
H     2.070000000     0.169000000     1.136000000
C     0.121000000    -0.679000000     1.066000000
H     0.267000000    -1.352000000     1.920000000
C    -1.090000000    -0.593000000     0.377000000
H    -1.896000000    -1.217000000     0.755000000
C    -1.257000000     0.176000000    -0.761000000
H    -2.259000000     0.249000000    -1.177000000
C    -0.180000000     0.919000000    -1.301000000
C    -0.231000000     1.691000000    -2.639000000
O     0.832000000     1.927000000    -3.255000000
O    -1.268000000     2.055000000    -3.152000000
