14
-85.25053
C     0.789000000     1.181000000    -0.347000000
H     1.490000000     1.977000000    -0.586000000
C     1.021000000     0.383000000     0.745000000
H     1.776000000     0.553000000     1.508000000
C     0.259000000    -0.778000000     0.933000000
H     0.440000000    -1.424000000     1.787000000
C    -0.904000000    -0.976000000     0.170000000
H    -1.654000000    -1.719000000     0.429000000
C    -1.217000000     0.004000000    -0.785000000
H    -2.120000000    -0.179000000    -1.361000000
C    -0.318000000     0.958000000    -1.181000000
C    -0.553000000     1.811000000    -2.355000000
O     0.174000000     2.718000000    -2.662000000
O    -1.540000000     1.562000000    -3.021000000
