14
-90.05028
C    -0.527000000     1.219000000    -0.713000000
H    -0.955000000     2.113000000    -1.158000000
C     0.620000000     1.208000000     0.123000000
H     0.971000000     2.157000000     0.521000000
C     1.068000000    -0.033000000     0.650000000
H     1.864000000     0.044000000     1.444000000
C     0.482000000    -1.230000000     0.323000000
H     0.901000000    -2.107000000     0.810000000
C    -0.661000000    -1.186000000    -0.505000000
H    -1.242000000    -2.085000000    -0.696000000
C    -1.088000000     0.024000000    -1.049000000
C    -2.392000000    -0.058000000    -1.913000000
O    -2.702000000     0.872000000    -2.614000000
O    -3.099000000    -1.053000000    -1.790000000
