14
-80.68558
C    -0.757000000     0.630000000     1.098000000
H    -1.283000000     1.125000000     1.910000000
C    -0.186000000     1.383000000     0.076000000
H    -0.314000000     2.460000000    -0.002000000
C     0.477000000     0.654000000    -0.921000000
H     0.855000000     1.338000000    -1.719000000
C     0.517000000    -0.712000000    -0.970000000
H     1.098000000    -1.193000000    -1.753000000
C     0.025000000    -1.411000000     0.131000000
H     0.090000000    -2.494000000     0.065000000
C    -0.706000000    -0.787000000     1.188000000
C    -1.209000000    -1.560000000     2.385000000
O    -1.002000000    -2.715000000     2.475000000
O    -1.930000000    -1.021000000     3.180000000
