14
-83.35554
C    -0.982000000     0.708000000    -0.819000000
H    -1.716000000     1.236000000    -1.422000000
C    -0.083000000     1.283000000     0.107000000
H    -0.180000000     2.322000000     0.412000000
C     0.855000000     0.515000000     0.794000000
H     1.485000000     0.871000000     1.554000000
C     0.864000000    -0.830000000     0.534000000
H     1.560000000    -1.443000000     1.100000000
C    -0.034000000    -1.502000000    -0.325000000
H    -0.028000000    -2.588000000    -0.371000000
C    -0.989000000    -0.697000000    -0.997000000
C    -2.103000000    -1.332000000    -1.890000000
O    -2.958000000    -0.663000000    -2.461000000
O    -2.191000000    -2.513000000    -2.072000000
