14
-80.67591
C    -1.338000000     0.519000000     0.145000000
H    -2.350000000     0.827000000     0.396000000
C    -0.526000000     0.103000000     1.219000000
H    -0.919000000     0.326000000     2.208000000
C     0.722000000    -0.317000000     0.936000000
H     1.429000000    -0.740000000     1.686000000
C     1.177000000    -0.318000000    -0.397000000
H     2.227000000    -0.588000000    -0.475000000
C     0.343000000     0.052000000    -1.475000000
H     0.734000000     0.084000000    -2.488000000
C    -0.961000000     0.364000000    -1.207000000
C    -1.891000000     0.864000000    -2.301000000
O    -3.041000000     1.235000000    -2.064000000
O    -1.668000000     0.650000000    -3.473000000
