14
-92.79206
C    -1.369000000     0.055000000     0.614000000
H    -2.279000000     0.296000000     1.158000000
C    -0.168000000     0.140000000     1.290000000
H    -0.133000000     0.435000000     2.335000000
C     1.039000000     0.161000000     0.612000000
H     1.983000000     0.356000000     1.117000000
C     1.054000000    -0.113000000    -0.730000000
H     2.000000000    -0.098000000    -1.265000000
C    -0.131000000    -0.342000000    -1.390000000
H    -0.020000000    -0.582000000    -2.444000000
C    -1.392000000    -0.235000000    -0.721000000
C    -2.680000000    -0.435000000    -1.497000000
O    -3.762000000    -0.148000000    -0.950000000
O    -2.569000000    -0.877000000    -2.634000000
