14
-86.78947
C    -1.315000000    -0.161000000     0.692000000
H    -2.142000000    -0.243000000     1.392000000
C    -0.287000000     0.782000000     0.991000000
H    -0.346000000     1.449000000     1.848000000
C     0.811000000     0.888000000     0.163000000
H     1.594000000     1.647000000     0.390000000
C     1.011000000     0.072000000    -0.925000000
H     1.996000000     0.090000000    -1.385000000
C     0.053000000    -0.988000000    -1.165000000
H     0.148000000    -1.768000000    -1.916000000
C    -1.118000000    -1.059000000    -0.396000000
C    -2.132000000    -2.151000000    -0.550000000
O    -3.294000000    -1.991000000    -0.103000000
O    -1.879000000    -2.999000000    -1.370000000
