14
-86.59537
C     0.460000000     0.873000000     1.131000000
H     0.895000000     1.495000000     1.909000000
C     0.169000000    -0.471000000     1.248000000
H     0.395000000    -0.973000000     2.185000000
C    -0.355000000    -1.197000000     0.093000000
H    -0.561000000    -2.280000000     0.100000000
C    -0.441000000    -0.608000000    -1.143000000
H    -0.649000000    -1.150000000    -2.062000000
C    -0.055000000     0.774000000    -1.259000000
H    -0.201000000     1.234000000    -2.234000000
C     0.267000000     1.537000000    -0.096000000
C     0.612000000     3.000000000    -0.159000000
O     0.854000000     3.647000000     0.853000000
O     0.575000000     3.581000000    -1.229000000
