14
-86.47575
C     0.534000000     1.175000000     0.710000000
H     1.083000000     1.864000000     1.347000000
C     0.129000000    -0.059000000     1.277000000
H     0.230000000    -0.174000000     2.354000000
C    -0.292000000    -1.116000000     0.480000000
H    -0.389000000    -2.156000000     0.929000000
C    -0.527000000    -0.839000000    -0.852000000
H    -1.077000000    -1.580000000    -1.427000000
C    -0.092000000     0.390000000    -1.450000000
H    -0.280000000     0.486000000    -2.516000000
C     0.477000000     1.385000000    -0.639000000
C     0.942000000     2.673000000    -1.262000000
O     1.448000000     3.575000000    -0.621000000
O     1.094000000     2.655000000    -2.518000000
