14
-87.93662
C    -0.823000000     1.289000000    -0.316000000
H    -1.578000000     2.049000000    -0.500000000
C    -1.235000000    -0.062000000    -0.469000000
H    -2.242000000    -0.294000000    -0.805000000
C    -0.424000000    -1.190000000    -0.189000000
H    -0.756000000    -2.177000000    -0.419000000
C     0.856000000    -0.905000000     0.316000000
H     1.546000000    -1.739000000     0.412000000
C     1.233000000     0.432000000     0.540000000
H     2.269000000     0.593000000     0.826000000
C     0.397000000     1.522000000     0.264000000
C     0.965000000     2.908000000     0.490000000
O     0.444000000     3.901000000    -0.032000000
O     2.007000000     3.025000000     1.066000000
