14
-86.81748
C    -0.903000000     1.022000000    -0.456000000
H    -1.684000000     1.730000000    -0.722000000
C    -1.305000000    -0.143000000     0.203000000
H    -2.364000000    -0.383000000     0.244000000
C    -0.355000000    -1.050000000     0.553000000
H    -0.636000000    -1.883000000     1.128000000
C     1.006000000    -0.768000000     0.482000000
H     1.775000000    -1.405000000     0.910000000
C     1.414000000     0.435000000    -0.062000000
H     2.440000000     0.787000000    -0.004000000
C     0.463000000     1.379000000    -0.608000000
C     0.935000000     2.687000000    -1.218000000
O     0.078000000     3.483000000    -1.586000000
O     2.096000000     2.874000000    -1.420000000
