14
-92.87509
C    -0.375000000     1.161000000    -0.832000000
H    -0.726000000     2.053000000    -1.345000000
C    -1.221000000     0.596000000     0.171000000
H    -2.236000000     0.951000000     0.337000000
C    -0.669000000    -0.498000000     0.899000000
H    -1.179000000    -0.882000000     1.750000000
C     0.581000000    -0.981000000     0.655000000
H     0.873000000    -1.813000000     1.290000000
C     1.400000000    -0.442000000    -0.390000000
H     2.418000000    -0.796000000    -0.531000000
C     0.908000000     0.659000000    -1.095000000
C     1.752000000     1.266000000    -2.258000000
O     1.177000000     2.112000000    -2.927000000
O     2.958000000     1.007000000    -2.343000000
