14
-88.70300
C    -0.998000000     0.993000000    -0.550000000
H    -1.724000000     1.764000000    -0.794000000
C    -1.229000000     0.095000000     0.491000000
H    -2.175000000     0.128000000     1.026000000
C    -0.278000000    -0.848000000     0.917000000
H    -0.459000000    -1.616000000     1.710000000
C     0.975000000    -0.873000000     0.270000000
H     1.733000000    -1.596000000     0.559000000
C     1.208000000     0.075000000    -0.769000000
H     2.215000000     0.044000000    -1.178000000
C     0.278000000     1.021000000    -1.205000000
C     0.779000000     2.118000000    -2.206000000
O    -0.028000000     2.848000000    -2.781000000
O     1.948000000     2.177000000    -2.561000000
