14
-87.11446
C     1.032000000    -0.492000000    -0.903000000
H     1.696000000    -1.014000000    -1.588000000
C    -0.073000000    -1.198000000    -0.453000000
H    -0.179000000    -2.263000000    -0.647000000
C    -1.019000000    -0.610000000     0.341000000
H    -1.849000000    -1.140000000     0.584000000
C    -0.880000000     0.698000000     0.745000000
H    -1.607000000     1.224000000     1.358000000
C     0.329000000     1.401000000     0.432000000
H     0.469000000     2.406000000     0.822000000
C     1.263000000     0.860000000    -0.509000000
C     2.372000000     1.733000000    -1.138000000
O     3.173000000     1.311000000    -1.956000000
O     2.374000000     2.909000000    -0.835000000
