14
-87.31666
C    -0.397000000    -0.623000000    -1.292000000
H    -0.840000000    -1.174000000    -2.118000000
C    -0.935000000    -0.944000000    -0.003000000
H    -1.656000000    -1.747000000     0.130000000
C    -0.456000000    -0.286000000     1.101000000
H    -0.699000000    -0.664000000     2.073000000
C     0.641000000     0.559000000     0.976000000
H     1.141000000     0.891000000     1.883000000
C     1.155000000     0.876000000    -0.262000000
H     1.935000000     1.616000000    -0.423000000
C     0.532000000     0.363000000    -1.429000000
C     1.033000000     0.815000000    -2.818000000
O     0.568000000     0.294000000    -3.820000000
O     1.875000000     1.721000000    -3.006000000
