14
-87.05983
C    -0.424000000    -0.164000000    -1.488000000
H    -0.840000000    -0.478000000    -2.442000000
C    -0.947000000    -0.876000000    -0.376000000
H    -1.657000000    -1.691000000    -0.490000000
C    -0.611000000    -0.569000000     0.950000000
H    -0.998000000    -1.186000000     1.781000000
C     0.358000000     0.391000000     1.170000000
H     0.792000000     0.591000000     2.146000000
C     0.929000000     1.130000000     0.113000000
H     1.725000000     1.828000000     0.360000000
C     0.603000000     0.799000000    -1.271000000
C     1.306000000     1.515000000    -2.424000000
O     1.250000000     0.963000000    -3.501000000
O     2.082000000     2.420000000    -2.182000000
