14
-88.92613
C     1.068000000    -0.411000000    -0.997000000
H     1.697000000    -0.876000000    -1.752000000
C    -0.130000000    -1.121000000    -0.666000000
H    -0.324000000    -2.069000000    -1.160000000
C    -1.067000000    -0.572000000     0.256000000
H    -1.951000000    -1.038000000     0.574000000
C    -0.737000000     0.650000000     0.912000000
H    -1.430000000     0.988000000     1.679000000
C     0.421000000     1.326000000     0.559000000
H     0.676000000     2.254000000     1.063000000
C     1.362000000     0.825000000    -0.391000000
C     2.740000000     1.429000000    -0.599000000
O     3.458000000     0.941000000    -1.445000000
O     2.979000000     2.482000000    -0.070000000
