14
-79.33509
C     0.847000000    -0.150000000    -1.120000000
H     1.463000000    -0.253000000    -2.010000000
C     0.122000000    -1.155000000    -0.573000000
H     0.131000000    -2.186000000    -0.919000000
C    -0.750000000    -0.885000000     0.402000000
H    -1.472000000    -1.650000000     0.847000000
C    -0.817000000     0.354000000     0.958000000
H    -1.357000000     0.456000000     1.896000000
C    -0.114000000     1.376000000     0.355000000
H    -0.216000000     2.390000000     0.733000000
C     0.759000000     1.186000000    -0.679000000
C     1.548000000     2.320000000    -1.361000000
O     2.349000000     2.028000000    -2.244000000
O     1.442000000     3.449000000    -1.028000000
