14
-92.14561
C     1.059000000    -1.070000000    -0.102000000
H     1.850000000    -1.815000000    -0.125000000
C     0.217000000    -0.892000000     0.995000000
H     0.355000000    -1.448000000     1.918000000
C    -0.801000000     0.037000000     0.914000000
H    -1.470000000     0.173000000     1.734000000
C    -1.031000000     0.785000000    -0.232000000
H    -1.863000000     1.476000000    -0.336000000
C    -0.120000000     0.696000000    -1.274000000
H    -0.159000000     1.302000000    -2.176000000
C     0.913000000    -0.282000000    -1.240000000
C     2.022000000    -0.202000000    -2.320000000
O     3.081000000    -0.798000000    -2.082000000
O     1.902000000     0.382000000    -3.381000000
