14
-83.37330
C     0.937000000    -0.832000000    -0.861000000
H     1.541000000    -1.523000000    -1.444000000
C     0.229000000    -1.282000000     0.192000000
H     0.189000000    -2.343000000     0.421000000
C    -0.720000000    -0.500000000     0.867000000
H    -1.425000000    -0.824000000     1.557000000
C    -0.829000000     0.859000000     0.484000000
H    -1.469000000     1.552000000     1.024000000
C     0.017000000     1.407000000    -0.524000000
H    -0.006000000     2.479000000    -0.706000000
C     0.897000000     0.542000000    -1.156000000
C     1.740000000     1.189000000    -2.213000000
O     2.793000000     0.716000000    -2.465000000
O     1.301000000     2.133000000    -2.856000000
