14
-91.52805
C     0.529000000    -1.284000000     0.335000000
H     0.721000000    -2.351000000     0.423000000
C    -0.822000000    -0.942000000     0.294000000
H    -1.536000000    -1.734000000     0.504000000
C    -1.209000000     0.342000000    -0.030000000
H    -2.296000000     0.657000000    -0.065000000
C    -0.200000000     1.262000000    -0.329000000
H    -0.511000000     2.228000000    -0.716000000
C     1.176000000     0.948000000    -0.234000000
H     1.914000000     1.711000000    -0.466000000
C     1.590000000    -0.335000000     0.071000000
C     3.061000000    -0.700000000     0.118000000
O     3.322000000    -1.874000000     0.496000000
O     3.968000000     0.043000000    -0.262000000
