14
-86.97803
C     1.406000000    -0.167000000    -0.321000000
H     2.456000000    -0.401000000    -0.478000000
C     0.579000000    -1.143000000     0.320000000
H     1.024000000    -2.104000000     0.566000000
C    -0.772000000    -0.862000000     0.538000000
H    -1.425000000    -1.570000000     0.969000000
C    -1.290000000     0.331000000     0.084000000
H    -2.358000000     0.464000000     0.233000000
C    -0.510000000     1.331000000    -0.577000000
H    -0.916000000     2.306000000    -0.835000000
C     0.884000000     1.071000000    -0.743000000
C     1.827000000     2.140000000    -1.390000000
O     3.028000000     1.994000000    -1.362000000
O     1.402000000     3.086000000    -2.008000000
