14
-89.07376
C     0.179000000    -1.325000000     0.624000000
H     0.186000000    -2.288000000     1.128000000
C    -0.886000000    -0.973000000    -0.203000000
H    -1.695000000    -1.694000000    -0.282000000
C    -0.905000000     0.283000000    -0.765000000
H    -1.790000000     0.654000000    -1.225000000
C     0.074000000     1.224000000    -0.439000000
H     0.000000000     2.200000000    -0.913000000
C     1.087000000     0.930000000     0.466000000
H     1.840000000     1.682000000     0.688000000
C     1.156000000    -0.350000000     0.958000000
C     2.225000000    -0.774000000     1.913000000
O     2.341000000    -1.946000000     2.217000000
O     3.026000000     0.038000000     2.346000000
