14
-81.49453
C    -0.609000000    -1.059000000     0.728000000
H    -1.215000000    -1.885000000     1.092000000
C    -1.305000000    -0.069000000     0.010000000
H    -2.389000000    -0.138000000     0.001000000
C    -0.586000000     0.897000000    -0.657000000
H    -0.980000000     1.689000000    -1.265000000
C     0.817000000     0.887000000    -0.477000000
H     1.365000000     1.614000000    -1.070000000
C     1.475000000     0.007000000     0.331000000
H     2.544000000    -0.003000000     0.528000000
C     0.730000000    -1.095000000     0.866000000
C     1.444000000    -2.152000000     1.717000000
O     0.907000000    -3.227000000     2.002000000
O     2.542000000    -1.972000000     2.032000000
