14
-85.69334
C     1.349000000     0.261000000     0.634000000
H     2.330000000     0.320000000     1.098000000
C     1.137000000    -0.661000000    -0.435000000
H     1.948000000    -1.178000000    -0.942000000
C    -0.180000000    -0.731000000    -1.001000000
H    -0.315000000    -1.364000000    -1.863000000
C    -1.183000000     0.161000000    -0.565000000
H    -2.161000000     0.224000000    -1.036000000
C    -0.913000000     0.895000000     0.571000000
H    -1.705000000     1.508000000     0.994000000
C     0.318000000     1.004000000     1.164000000
C     0.564000000     1.804000000     2.391000000
O     1.417000000     1.410000000     3.190000000
O    -0.225000000     2.651000000     2.776000000
