14
-92.00573
C     1.049000000    -0.105000000     1.052000000
H     1.788000000    -0.394000000     1.795000000
C     0.897000000    -0.930000000    -0.074000000
H     1.600000000    -1.726000000    -0.309000000
C    -0.092000000    -0.656000000    -1.015000000
H    -0.215000000    -1.340000000    -1.833000000
C    -0.953000000     0.373000000    -0.819000000
H    -1.735000000     0.518000000    -1.559000000
C    -0.812000000     1.159000000     0.307000000
H    -1.546000000     1.944000000     0.467000000
C     0.172000000     0.945000000     1.299000000
C     0.250000000     1.753000000     2.548000000
O     1.356000000     1.834000000     3.035000000
O    -0.743000000     2.401000000     2.896000000
