14
-85.62046
C    -1.219000000    -0.855000000     0.340000000
H    -2.187000000    -1.294000000     0.569000000
C    -1.218000000     0.470000000    -0.144000000
H    -2.167000000     0.969000000    -0.323000000
C    -0.007000000     1.182000000    -0.429000000
H     0.090000000     2.200000000    -0.799000000
C     1.188000000     0.527000000    -0.185000000
H     2.090000000     1.126000000    -0.285000000
C     1.190000000    -0.843000000     0.182000000
H     2.171000000    -1.308000000     0.241000000
C     0.032000000    -1.592000000     0.450000000
C     0.005000000    -3.005000000     1.000000000
O     1.003000000    -3.708000000     0.996000000
O    -0.986000000    -3.401000000     1.541000000
