14
-87.58227
C     1.092000000     0.463000000     0.847000000
H     2.020000000     0.857000000     1.253000000
C     1.174000000    -0.650000000     0.062000000
H     2.104000000    -1.206000000    -0.021000000
C    -0.034000000    -1.068000000    -0.566000000
H    -0.061000000    -1.917000000    -1.271000000
C    -1.212000000    -0.330000000    -0.499000000
H    -2.027000000    -0.595000000    -1.168000000
C    -1.296000000     0.802000000     0.269000000
H    -2.227000000     1.362000000     0.240000000
C    -0.128000000     1.186000000     0.942000000
C    -0.094000000     2.607000000     1.543000000
O     0.702000000     2.810000000     2.479000000
O    -0.969000000     3.419000000     1.290000000
