14
-81.50080
C     1.346000000     0.208000000    -0.600000000
H     2.357000000     0.287000000    -0.992000000
C     0.482000000    -0.821000000    -0.996000000
H     0.747000000    -1.470000000    -1.827000000
C    -0.743000000    -0.896000000    -0.360000000
H    -1.360000000    -1.765000000    -0.535000000
C    -1.124000000     0.046000000     0.565000000
H    -2.137000000     0.060000000     0.960000000
C    -0.244000000     1.041000000     0.952000000
H    -0.552000000     1.710000000     1.751000000
C     0.996000000     1.092000000     0.419000000
C     1.918000000     2.216000000     0.928000000
O     3.076000000     2.298000000     0.620000000
O     1.505000000     3.121000000     1.590000000
