14
-84.86651
C     0.920000000    -0.289000000     1.099000000
H     1.638000000    -0.610000000     1.849000000
C    -0.047000000    -1.132000000     0.633000000
H    -0.204000000    -2.103000000     1.094000000
C    -0.894000000    -0.718000000    -0.399000000
H    -1.771000000    -1.322000000    -0.654000000
C    -0.638000000     0.500000000    -1.079000000
H    -1.399000000     0.817000000    -1.787000000
C     0.358000000     1.355000000    -0.614000000
H     0.370000000     2.333000000    -1.089000000
C     1.127000000     0.942000000     0.509000000
C     2.218000000     1.791000000     1.104000000
O     2.801000000     1.437000000     2.123000000
O     2.422000000     2.921000000     0.732000000
