14
-82.89651
C     1.255000000    -0.038000000    -0.807000000
H     2.137000000    -0.262000000    -1.402000000
C     0.029000000    -0.742000000    -1.053000000
H     0.019000000    -1.474000000    -1.856000000
C    -1.088000000    -0.642000000    -0.202000000
H    -1.961000000    -1.300000000    -0.326000000
C    -0.997000000     0.276000000     0.846000000
H    -1.907000000     0.426000000     1.421000000
C     0.177000000     1.078000000     0.995000000
H     0.271000000     1.744000000     1.848000000
C     1.320000000     0.828000000     0.279000000
C     2.528000000     1.631000000     0.623000000
O     3.607000000     1.420000000     0.137000000
O     2.373000000     2.646000000     1.249000000
