14
-84.74519
C     0.646000000     0.136000000     1.264000000
H     1.247000000     0.106000000     2.170000000
C     0.642000000    -1.065000000     0.517000000
H     1.252000000    -1.916000000     0.808000000
C    -0.171000000    -1.042000000    -0.621000000
H    -0.120000000    -2.010000000    -1.130000000
C    -0.885000000     0.064000000    -1.022000000
H    -1.374000000     0.121000000    -1.991000000
C    -0.781000000     1.270000000    -0.311000000
H    -1.461000000     2.075000000    -0.578000000
C     0.026000000     1.313000000     0.891000000
C     0.297000000     2.592000000     1.655000000
O     0.861000000     2.540000000     2.756000000
O    -0.281000000     3.557000000     1.271000000
