14
-87.56268
C     1.365000000    -0.297000000     0.405000000
H     2.332000000    -0.708000000     0.685000000
C     0.406000000    -1.252000000     0.027000000
H     0.738000000    -2.282000000    -0.070000000
C    -0.854000000    -0.798000000    -0.359000000
H    -1.528000000    -1.519000000    -0.866000000
C    -1.170000000     0.537000000    -0.216000000
H    -2.203000000     0.826000000    -0.396000000
C    -0.211000000     1.403000000     0.267000000
H    -0.485000000     2.447000000     0.399000000
C     1.062000000     1.047000000     0.515000000
C     2.062000000     2.064000000     0.867000000
O     3.140000000     1.690000000     1.299000000
O     1.873000000     3.271000000     0.668000000
