14
-87.96146
C     0.572000000    -0.012000000     1.325000000
H     0.941000000    -0.196000000     2.330000000
C     0.735000000    -1.054000000     0.427000000
H     1.352000000    -1.915000000     0.668000000
C     0.029000000    -0.974000000    -0.821000000
H     0.084000000    -1.707000000    -1.539000000
C    -0.765000000     0.139000000    -1.098000000
H    -1.285000000     0.288000000    -2.041000000
C    -0.896000000     1.172000000    -0.089000000
H    -1.468000000     2.054000000    -0.367000000
C    -0.149000000     1.144000000     1.087000000
C    -0.178000000     2.326000000     2.091000000
O     0.423000000     2.195000000     3.133000000
O    -0.844000000     3.319000000     1.886000000
