14
-85.22535
C     1.096000000     0.148000000     0.984000000
H     1.948000000     0.096000000     1.657000000
C     1.143000000    -0.688000000    -0.115000000
H     2.066000000    -1.210000000    -0.353000000
C     0.077000000    -0.721000000    -0.972000000
H     0.197000000    -1.190000000    -1.942000000
C    -1.041000000    -0.036000000    -0.671000000
H    -1.865000000    -0.109000000    -1.376000000
C    -1.161000000     0.801000000     0.394000000
H    -2.133000000     1.250000000     0.578000000
C    -0.056000000     0.940000000     1.260000000
C    -0.093000000     1.863000000     2.463000000
O     0.648000000     1.651000000     3.427000000
O    -0.904000000     2.764000000     2.578000000
