14
-91.13304
C     0.885000000    -0.081000000     1.202000000
H     1.706000000    -0.098000000     1.915000000
C     1.167000000    -0.644000000    -0.072000000
H     2.073000000    -1.225000000    -0.228000000
C     0.216000000    -0.512000000    -1.086000000
H     0.419000000    -0.959000000    -2.054000000
C    -0.925000000     0.238000000    -0.876000000
H    -1.681000000     0.373000000    -1.645000000
C    -1.172000000     0.787000000     0.371000000
H    -2.074000000     1.377000000     0.510000000
C    -0.230000000     0.660000000     1.363000000
C    -0.504000000     1.388000000     2.677000000
O     0.056000000     0.931000000     3.711000000
O    -0.992000000     2.510000000     2.649000000
