14
-90.44495
C    -0.357000000    -1.137000000     0.851000000
H    -0.592000000    -2.088000000     1.322000000
C     0.803000000    -1.028000000     0.049000000
H     1.468000000    -1.876000000    -0.092000000
C     1.049000000     0.132000000    -0.697000000
H     1.911000000     0.206000000    -1.371000000
C     0.028000000     1.116000000    -0.779000000
H     0.138000000     1.916000000    -1.507000000
C    -1.130000000     1.019000000     0.026000000
H    -1.843000000     1.837000000    -0.021000000
C    -1.314000000    -0.108000000     0.821000000
C    -2.495000000    -0.271000000     1.807000000
O    -2.430000000    -1.047000000     2.734000000
O    -3.569000000     0.295000000     1.564000000
