14
-79.48058
C     0.485000000    -0.728000000     1.215000000
H     0.856000000    -1.284000000     2.072000000
C     1.096000000    -0.760000000    -0.045000000
H     1.934000000    -1.426000000    -0.234000000
C     0.442000000    -0.095000000    -1.122000000
H     0.750000000    -0.229000000    -2.060000000
C    -0.632000000     0.691000000    -0.942000000
H    -0.959000000     1.376000000    -1.720000000
C    -1.107000000     0.836000000     0.314000000
H    -1.865000000     1.610000000     0.402000000
C    -0.614000000     0.094000000     1.454000000
C    -1.151000000     0.290000000     2.807000000
O    -1.082000000    -0.664000000     3.613000000
O    -1.911000000     1.226000000     3.018000000
