14
-85.65118
C     0.256000000    -0.819000000     1.296000000
H     0.621000000    -1.535000000     2.028000000
C     1.158000000    -0.651000000     0.159000000
H     2.119000000    -1.157000000     0.186000000
C     0.881000000     0.173000000    -0.948000000
H     1.508000000     0.269000000    -1.820000000
C    -0.427000000     0.619000000    -1.011000000
H    -0.725000000     1.153000000    -1.910000000
C    -1.330000000     0.510000000     0.087000000
H    -2.228000000     1.122000000     0.095000000
C    -0.997000000    -0.200000000     1.273000000
C    -2.031000000    -0.279000000     2.473000000
O    -1.667000000    -0.802000000     3.519000000
O    -3.205000000     0.082000000     2.345000000
