14
-82.17873
C    -0.657000000    -1.291000000     0.197000000
H    -1.302000000    -2.164000000     0.244000000
C    -0.199000000    -0.857000000    -1.025000000
H    -0.470000000    -1.451000000    -1.894000000
C     0.520000000     0.357000000    -1.093000000
H     0.661000000     0.774000000    -2.097000000
C     0.753000000     1.079000000     0.119000000
H     1.273000000     2.033000000     0.084000000
C     0.327000000     0.546000000     1.332000000
H     0.439000000     1.167000000     2.217000000
C    -0.447000000    -0.653000000     1.387000000
C    -1.192000000    -0.843000000     2.667000000
O    -2.016000000    -1.739000000     2.685000000
O    -1.156000000    -0.079000000     3.584000000
