14
-83.48843
C    -0.440000000    -1.409000000    -0.055000000
H    -0.827000000    -2.409000000    -0.236000000
C    -0.053000000    -0.657000000    -1.095000000
H    -0.209000000    -0.933000000    -2.135000000
C     0.352000000     0.621000000    -0.955000000
H     0.494000000     1.236000000    -1.861000000
C     0.458000000     1.152000000     0.307000000
H     0.753000000     2.193000000     0.410000000
C     0.154000000     0.394000000     1.399000000
H     0.262000000     0.768000000     2.414000000
C    -0.320000000    -0.894000000     1.218000000
C    -0.870000000    -1.597000000     2.460000000
O    -1.494000000    -2.622000000     2.208000000
O    -0.780000000    -1.202000000     3.589000000
