14
-81.86282
C     0.896000000    -0.663000000    -1.017000000
H     1.370000000    -1.172000000    -1.852000000
C     0.906000000     0.649000000    -0.737000000
H     1.683000000     1.293000000    -1.142000000
C     0.044000000     1.159000000     0.264000000
H     0.109000000     2.249000000     0.592000000
C    -0.731000000     0.393000000     1.018000000
H    -1.383000000     0.746000000     1.813000000
C    -0.715000000    -0.969000000     0.758000000
H    -1.372000000    -1.609000000     1.342000000
C     0.045000000    -1.498000000    -0.276000000
C    -0.112000000    -3.002000000    -0.592000000
O     0.091000000    -3.380000000    -1.711000000
O    -0.605000000    -3.739000000     0.224000000
