14
-83.75551
C    -0.592000000    -1.131000000    -0.721000000
H    -0.989000000    -1.917000000    -1.358000000
C     0.296000000    -0.194000000    -1.275000000
H     0.702000000    -0.328000000    -2.274000000
C     0.778000000     0.800000000    -0.496000000
H     1.495000000     1.624000000    -0.899000000
C     0.497000000     0.871000000     0.862000000
H     0.836000000     1.707000000     1.469000000
C    -0.432000000    -0.067000000     1.413000000
H    -0.712000000    -0.037000000     2.463000000
C    -0.985000000    -1.021000000     0.601000000
C    -1.935000000    -2.048000000     1.180000000
O    -2.697000000    -2.694000000     0.530000000
O    -1.970000000    -2.238000000     2.394000000
