14
-87.57993
C    -0.295000000    -1.449000000     0.036000000
H    -0.362000000    -2.533000000     0.031000000
C     0.687000000    -0.865000000    -0.734000000
H     1.203000000    -1.373000000    -1.545000000
C     0.950000000     0.488000000    -0.596000000
H     1.543000000     0.984000000    -1.330000000
C     0.106000000     1.308000000     0.208000000
H     0.226000000     2.388000000     0.226000000
C    -0.955000000     0.715000000     0.900000000
H    -1.588000000     1.345000000     1.520000000
C    -1.125000000    -0.702000000     0.829000000
C    -2.338000000    -1.275000000     1.534000000
O    -2.536000000    -2.480000000     1.448000000
O    -2.958000000    -0.621000000     2.373000000
