14
-80.59887
C     1.301000000    -0.759000000    -0.076000000
H     2.241000000    -1.301000000    -0.142000000
C     1.073000000     0.564000000    -0.506000000
H     1.862000000     1.224000000    -0.855000000
C    -0.145000000     1.164000000    -0.377000000
H    -0.198000000     2.259000000    -0.462000000
C    -1.164000000     0.468000000     0.285000000
H    -2.087000000     0.975000000     0.552000000
C    -1.029000000    -0.899000000     0.509000000
H    -1.859000000    -1.358000000     1.041000000
C     0.177000000    -1.541000000     0.294000000
C     0.365000000    -2.962000000     0.780000000
O     1.459000000    -3.383000000     0.991000000
O    -0.574000000    -3.670000000     1.102000000
