14
-87.05066
C     0.946000000    -0.506000000    -1.064000000
H     1.657000000    -0.742000000    -1.852000000
C     0.646000000     0.824000000    -0.741000000
H     1.224000000     1.614000000    -1.213000000
C    -0.248000000     1.170000000     0.284000000
H    -0.539000000     2.266000000     0.486000000
C    -0.978000000     0.182000000     0.896000000
H    -1.674000000     0.466000000     1.681000000
C    -0.737000000    -1.179000000     0.486000000
H    -1.341000000    -1.909000000     1.018000000
C     0.185000000    -1.520000000    -0.467000000
C     0.641000000    -2.901000000    -0.823000000
O     1.766000000    -3.112000000    -1.261000000
O    -0.039000000    -3.887000000    -0.466000000
