14
-83.76233
C     1.250000000    -0.306000000    -0.665000000
H     2.055000000    -0.433000000    -1.383000000
C     0.473000000     0.810000000    -0.798000000
H     0.605000000     1.475000000    -1.647000000
C    -0.607000000     1.080000000    -0.012000000
H    -1.102000000     1.976000000    -0.154000000
C    -1.015000000     0.122000000     0.896000000
H    -1.973000000     0.311000000     1.373000000
C    -0.274000000    -1.060000000     1.008000000
H    -0.477000000    -1.745000000     1.827000000
C     0.889000000    -1.290000000     0.290000000
C     1.583000000    -2.645000000     0.266000000
O     2.598000000    -2.764000000    -0.388000000
O     1.251000000    -3.588000000     0.982000000
