14
-77.44546
C     0.903000000     0.686000000     0.999000000
H     1.480000000     1.351000000     1.636000000
C     0.091000000     1.284000000     0.008000000
H     0.100000000     2.360000000    -0.146000000
C    -0.830000000     0.556000000    -0.772000000
H    -1.421000000     1.111000000    -1.470000000
C    -0.758000000    -0.840000000    -0.673000000
H    -1.316000000    -1.296000000    -1.487000000
C     0.201000000    -1.526000000     0.159000000
H     0.486000000    -2.563000000     0.003000000
C     0.970000000    -0.700000000     1.090000000
C     1.936000000    -1.291000000     2.123000000
O     3.029000000    -0.802000000     2.283000000
O     1.698000000    -2.381000000     2.535000000
