14
-84.75612
C     0.138000000     1.385000000     0.380000000
H     0.230000000     2.454000000     0.556000000
C     0.363000000     0.870000000    -0.944000000
H     0.513000000     1.517000000    -1.804000000
C     0.338000000    -0.556000000    -1.113000000
H     0.550000000    -1.068000000    -2.042000000
C    -0.146000000    -1.294000000    -0.045000000
H    -0.190000000    -2.370000000    -0.195000000
C    -0.513000000    -0.731000000     1.194000000
H    -0.804000000    -1.354000000     2.036000000
C    -0.335000000     0.598000000     1.475000000
C    -0.686000000     1.235000000     2.827000000
O    -0.557000000     2.427000000     3.041000000
O    -1.072000000     0.516000000     3.690000000
