14
-88.55444
C    -0.641000000    -1.327000000    -0.102000000
H    -1.286000000    -2.197000000    -0.186000000
C    -1.345000000    -0.107000000     0.186000000
H    -2.408000000    -0.033000000     0.400000000
C    -0.578000000     1.049000000     0.161000000
H    -1.050000000     1.997000000     0.254000000
C     0.794000000     1.111000000    -0.188000000
H     1.341000000     2.047000000    -0.263000000
C     1.437000000    -0.123000000    -0.313000000
H     2.517000000    -0.105000000    -0.436000000
C     0.748000000    -1.360000000    -0.290000000
C     1.569000000    -2.631000000    -0.412000000
O     2.758000000    -2.589000000    -0.620000000
O     1.011000000    -3.759000000    -0.400000000
