14
-87.56414
C    -0.682000000    -0.144000000     1.337000000
H    -1.262000000    -0.163000000     2.257000000
C     0.254000000     0.807000000     0.995000000
H     0.551000000     1.629000000     1.642000000
C     0.905000000     0.759000000    -0.248000000
H     1.463000000     1.638000000    -0.541000000
C     0.655000000    -0.207000000    -1.156000000
H     1.070000000    -0.127000000    -2.157000000
C    -0.356000000    -1.137000000    -0.848000000
H    -0.677000000    -1.757000000    -1.681000000
C    -1.095000000    -1.100000000     0.350000000
C    -2.202000000    -2.062000000     0.669000000
O    -2.861000000    -1.963000000     1.690000000
O    -2.282000000    -3.068000000    -0.031000000
