14
-86.86479
C    -0.754000000     0.080000000     1.365000000
H    -1.395000000     0.279000000     2.220000000
C    -0.001000000     1.137000000     0.726000000
H     0.010000000     2.104000000     1.222000000
C     0.660000000     0.955000000    -0.514000000
H     1.139000000     1.691000000    -1.166000000
C     0.550000000    -0.300000000    -1.133000000
H     0.993000000    -0.406000000    -2.120000000
C    -0.086000000    -1.351000000    -0.534000000
H    -0.217000000    -2.313000000    -1.023000000
C    -0.754000000    -1.197000000     0.693000000
C    -1.618000000    -2.316000000     1.269000000
O    -2.482000000    -2.133000000     2.107000000
O    -1.385000000    -3.460000000     0.904000000
