14
-79.95062
C     0.073000000    -0.677000000     1.350000000
H     0.086000000    -1.118000000     2.344000000
C     0.863000000     0.358000000     0.921000000
H     1.689000000     0.631000000     1.573000000
C     0.626000000     1.040000000    -0.299000000
H     1.246000000     1.861000000    -0.610000000
C    -0.308000000     0.508000000    -1.179000000
H    -0.448000000     0.962000000    -2.157000000
C    -0.947000000    -0.664000000    -0.850000000
H    -1.642000000    -1.117000000    -1.553000000
C    -0.871000000    -1.227000000     0.421000000
C    -1.630000000    -2.513000000     0.720000000
O    -1.683000000    -2.882000000     1.879000000
O    -2.406000000    -2.989000000    -0.023000000
