14
-84.20726
C    -0.613000000    -0.787000000     1.124000000
H    -1.019000000    -1.256000000     2.016000000
C     0.648000000    -0.161000000     1.203000000
H     1.174000000    -0.229000000     2.152000000
C     1.161000000     0.528000000     0.082000000
H     2.122000000     1.067000000     0.198000000
C     0.416000000     0.564000000    -1.083000000
H     0.715000000     1.227000000    -1.890000000
C    -0.768000000    -0.200000000    -1.157000000
H    -1.310000000    -0.271000000    -2.096000000
C    -1.345000000    -0.837000000    -0.081000000
C    -2.735000000    -1.482000000    -0.248000000
O    -3.299000000    -1.956000000     0.726000000
O    -3.430000000    -1.522000000    -1.256000000
