14
-92.77766
C    -0.204000000    -0.757000000     1.235000000
H    -0.373000000    -1.189000000     2.218000000
C    -0.122000000     0.628000000     1.140000000
H    -0.507000000     1.258000000     1.938000000
C     0.113000000     1.242000000    -0.092000000
H     0.125000000     2.313000000    -0.108000000
C     0.397000000     0.462000000    -1.192000000
H     0.666000000     0.961000000    -2.120000000
C     0.333000000    -0.906000000    -1.079000000
H     0.647000000    -1.451000000    -1.966000000
C     0.068000000    -1.573000000     0.112000000
C    -0.077000000    -3.083000000     0.294000000
O    -0.437000000    -3.486000000     1.419000000
O     0.224000000    -3.877000000    -0.610000000
