14
-90.75509
C     0.966000000     1.117000000     0.177000000
H     1.648000000     1.938000000     0.387000000
C     0.099000000     0.564000000     1.186000000
H     0.034000000     0.969000000     2.193000000
C    -0.727000000    -0.530000000     0.883000000
H    -1.484000000    -1.011000000     1.620000000
C    -0.773000000    -1.015000000    -0.415000000
H    -1.423000000    -1.839000000    -0.695000000
C     0.144000000    -0.496000000    -1.398000000
H     0.174000000    -1.063000000    -2.325000000
C     1.004000000     0.528000000    -1.074000000
C     1.948000000     1.069000000    -2.172000000
O     2.004000000     0.449000000    -3.234000000
O     2.544000000     2.130000000    -2.026000000
