14
-90.66303
C    -0.428000000    -0.983000000     1.032000000
H    -0.858000000    -1.641000000     1.783000000
C    -0.266000000     0.402000000     1.289000000
H    -0.463000000     0.869000000     2.250000000
C     0.118000000     1.165000000     0.178000000
H     0.171000000     2.298000000     0.363000000
C     0.145000000     0.676000000    -1.126000000
H     0.467000000     1.290000000    -1.963000000
C     0.073000000    -0.680000000    -1.290000000
H     0.405000000    -1.083000000    -2.243000000
C    -0.209000000    -1.561000000    -0.233000000
C    -0.279000000    -3.060000000    -0.454000000
O    -0.567000000    -3.730000000     0.572000000
O    -0.075000000    -3.554000000    -1.571000000
