14
-90.89445
C     0.756000000    -0.173000000     1.274000000
H     1.289000000    -0.234000000     2.220000000
C    -0.117000000     0.834000000     0.982000000
H    -0.290000000     1.559000000     1.773000000
C    -0.694000000     0.968000000    -0.267000000
H    -1.436000000     1.707000000    -0.515000000
C    -0.426000000     0.054000000    -1.237000000
H    -0.813000000     0.156000000    -2.248000000
C     0.337000000    -1.089000000    -0.935000000
H     0.497000000    -1.805000000    -1.737000000
C     0.911000000    -1.255000000     0.371000000
C     1.791000000    -2.522000000     0.712000000
O     2.298000000    -2.537000000     1.817000000
O     1.927000000    -3.453000000    -0.097000000
