14
-83.78026
C     0.578000000    -1.316000000     0.533000000
H     0.918000000    -2.215000000     1.042000000
C    -0.616000000    -0.640000000     0.975000000
H    -1.336000000    -1.092000000     1.653000000
C    -0.991000000     0.615000000     0.403000000
H    -1.925000000     1.113000000     0.681000000
C    -0.197000000     1.184000000    -0.589000000
H    -0.434000000     2.183000000    -0.946000000
C     0.976000000     0.543000000    -0.999000000
H     1.549000000     1.021000000    -1.788000000
C     1.308000000    -0.746000000    -0.549000000
C     2.507000000    -1.390000000    -1.142000000
O     3.380000000    -0.711000000    -1.640000000
O     2.649000000    -2.561000000    -1.062000000
