14
-87.27252
C     0.285000000    -0.896000000     1.202000000
H     0.446000000    -1.404000000     2.150000000
C    -0.675000000     0.097000000     1.132000000
H    -1.371000000     0.198000000     1.961000000
C    -0.822000000     0.903000000    -0.020000000
H    -1.609000000     1.631000000    -0.107000000
C     0.106000000     0.754000000    -1.109000000
H     0.013000000     1.366000000    -2.003000000
C     0.971000000    -0.274000000    -1.071000000
H     1.578000000    -0.532000000    -1.935000000
C     1.081000000    -1.106000000     0.059000000
C     2.074000000    -2.254000000     0.033000000
O     2.770000000    -2.373000000     1.032000000
O     2.329000000    -2.862000000    -0.964000000
