14
-74.40346
C     0.587000000    -0.175000000     1.356000000
H     1.002000000    -0.044000000     2.352000000
C    -0.198000000     0.907000000     0.905000000
H    -0.365000000     1.734000000     1.591000000
C    -0.605000000     0.916000000    -0.429000000
H    -1.178000000     1.755000000    -0.882000000
C    -0.556000000    -0.200000000    -1.247000000
H    -0.973000000    -0.123000000    -2.248000000
C     0.251000000    -1.224000000    -0.797000000
H     0.290000000    -2.089000000    -1.453000000
C     0.821000000    -1.263000000     0.545000000
C     1.580000000    -2.433000000     0.974000000
O     2.067000000    -2.537000000     2.079000000
O     2.000000000    -3.211000000     0.168000000
