14
-83.13262
C     0.513000000    -0.062000000     1.334000000
H     0.979000000    -0.011000000     2.315000000
C     0.785000000     0.858000000     0.384000000
H     1.512000000     1.639000000     0.592000000
C     0.184000000     0.853000000    -0.807000000
H     0.491000000     1.569000000    -1.518000000
C    -0.805000000    -0.077000000    -1.191000000
H    -1.322000000    -0.036000000    -2.147000000
C    -0.992000000    -1.079000000    -0.214000000
H    -1.625000000    -1.918000000    -0.492000000
C    -0.338000000    -1.111000000     1.022000000
C    -0.515000000    -2.311000000     2.038000000
O     0.163000000    -2.249000000     3.109000000
O    -1.199000000    -3.257000000     1.845000000
