14
-82.32556
C     0.073000000    -1.390000000     0.462000000
H     0.129000000    -2.310000000     1.037000000
C    -0.846000000    -0.446000000     0.808000000
H    -1.586000000    -0.577000000     1.593000000
C    -0.846000000     0.829000000     0.330000000
H    -1.526000000     1.563000000     0.790000000
C     0.070000000     1.161000000    -0.631000000
H     0.081000000     2.189000000    -0.987000000
C     0.981000000     0.177000000    -1.143000000
H     1.602000000     0.402000000    -2.006000000
C     0.998000000    -1.089000000    -0.545000000
C     2.094000000    -2.055000000    -0.849000000
O     3.086000000    -1.857000000    -1.472000000
O     1.862000000    -3.171000000    -0.410000000
