14
-79.64046
C     1.070000000    -0.829000000     0.608000000
H     1.844000000    -1.357000000     1.159000000
C     1.076000000     0.530000000     0.528000000
H     1.863000000     1.129000000     0.979000000
C     0.026000000     1.245000000    -0.064000000
H    -0.081000000     2.307000000    -0.053000000
C    -1.024000000     0.457000000    -0.704000000
H    -1.882000000     0.872000000    -1.227000000
C    -1.026000000    -0.895000000    -0.627000000
H    -1.745000000    -1.501000000    -1.174000000
C     0.021000000    -1.580000000     0.087000000
C     0.003000000    -3.077000000     0.266000000
O     0.866000000    -3.590000000     0.850000000
O    -0.800000000    -3.718000000    -0.364000000
