14
-85.89566
C     0.933000000    -0.481000000     1.095000000
H     1.751000000    -0.712000000     1.773000000
C     1.000000000     0.719000000     0.406000000
H     1.943000000     1.259000000     0.382000000
C     0.102000000     1.038000000    -0.614000000
H     0.228000000     1.977000000    -1.215000000
C    -0.936000000     0.193000000    -0.862000000
H    -1.604000000     0.514000000    -1.657000000
C    -1.129000000    -0.935000000    -0.116000000
H    -1.970000000    -1.593000000    -0.323000000
C    -0.179000000    -1.351000000     0.836000000
C    -0.279000000    -2.687000000     1.606000000
O     0.672000000    -3.006000000     2.256000000
O    -1.341000000    -3.279000000     1.682000000
