14
-83.46981
C     0.211000000     0.319000000     1.444000000
H     0.769000000     0.622000000     2.326000000
C     0.817000000     0.940000000     0.355000000
H     1.511000000     1.753000000     0.553000000
C     0.501000000     0.618000000    -0.999000000
H     0.967000000     1.032000000    -1.891000000
C    -0.516000000    -0.346000000    -1.199000000
H    -0.759000000    -0.702000000    -2.197000000
C    -1.085000000    -0.988000000    -0.128000000
H    -1.727000000    -1.855000000    -0.260000000
C    -0.695000000    -0.723000000     1.178000000
C    -1.249000000    -1.500000000     2.344000000
O    -0.834000000    -1.301000000     3.469000000
O    -2.092000000    -2.378000000     2.198000000
