14
-88.31036
C     1.055000000    -0.547000000     0.827000000
H     1.922000000    -0.884000000     1.389000000
C     0.754000000     0.805000000     0.624000000
H     1.366000000     1.526000000     1.160000000
C    -0.238000000     1.194000000    -0.183000000
H    -0.373000000     2.284000000    -0.443000000
C    -0.925000000     0.224000000    -0.922000000
H    -1.650000000     0.523000000    -1.674000000
C    -0.719000000    -1.131000000    -0.727000000
H    -1.281000000    -1.883000000    -1.276000000
C     0.314000000    -1.516000000     0.169000000
C     0.366000000    -2.957000000     0.661000000
O     1.179000000    -3.357000000     1.528000000
O    -0.331000000    -3.774000000     0.086000000
