14
-89.53632
C     0.600000000    -0.834000000     1.103000000
H     1.150000000    -1.411000000     1.842000000
C     1.247000000     0.145000000     0.371000000
H     2.265000000     0.470000000     0.571000000
C     0.551000000     0.936000000    -0.586000000
H     1.064000000     1.774000000    -1.060000000
C    -0.832000000     0.680000000    -0.843000000
H    -1.421000000     1.281000000    -1.532000000
C    -1.430000000    -0.421000000    -0.168000000
H    -2.481000000    -0.625000000    -0.360000000
C    -0.714000000    -1.203000000     0.730000000
C    -1.374000000    -2.279000000     1.521000000
O    -0.935000000    -2.607000000     2.585000000
O    -2.399000000    -2.798000000     1.078000000
