14
-77.44209
C     0.356000000    -0.738000000     1.212000000
H     0.753000000    -1.155000000     2.134000000
C     1.064000000     0.309000000     0.685000000
H     2.008000000     0.542000000     1.172000000
C     0.626000000     0.947000000    -0.440000000
H     1.207000000     1.806000000    -0.801000000
C    -0.548000000     0.529000000    -1.124000000
H    -0.866000000     0.875000000    -2.104000000
C    -1.306000000    -0.507000000    -0.521000000
H    -2.214000000    -0.854000000    -1.006000000
C    -0.741000000    -1.262000000     0.538000000
C    -1.437000000    -2.442000000     1.069000000
O    -0.891000000    -3.281000000     1.721000000
O    -2.608000000    -2.704000000     0.823000000
