14
-86.60017
C    -0.715000000     0.247000000     1.228000000
H    -1.176000000     0.507000000     2.178000000
C     0.622000000     0.633000000     0.984000000
H     1.153000000     1.111000000     1.803000000
C     1.188000000     0.282000000    -0.196000000
H     2.223000000     0.544000000    -0.364000000
C     0.445000000    -0.390000000    -1.153000000
H     0.969000000    -0.638000000    -2.073000000
C    -0.975000000    -0.506000000    -1.024000000
H    -1.535000000    -0.912000000    -1.862000000
C    -1.549000000    -0.354000000     0.242000000
C    -3.003000000    -0.745000000     0.487000000
O    -3.539000000    -0.545000000     1.587000000
O    -3.570000000    -1.425000000    -0.329000000
