14
-86.66137
C    -0.410000000     0.577000000     1.287000000
H    -0.529000000     0.932000000     2.307000000
C     0.597000000     1.029000000     0.489000000
H     1.201000000     1.879000000     0.794000000
C     0.894000000     0.442000000    -0.691000000
H     1.841000000     0.723000000    -1.110000000
C     0.148000000    -0.673000000    -1.116000000
H     0.486000000    -1.071000000    -2.069000000
C    -0.916000000    -1.191000000    -0.372000000
H    -1.503000000    -2.043000000    -0.705000000
C    -1.267000000    -0.472000000     0.790000000
C    -2.461000000    -0.963000000     1.680000000
O    -2.630000000    -0.380000000     2.739000000
O    -2.964000000    -2.059000000     1.428000000
