14
-85.83909
C     0.116000000     0.038000000     1.451000000
H     0.119000000     0.123000000     2.534000000
C     0.902000000     0.766000000     0.555000000
H     1.673000000     1.403000000     0.981000000
C     0.725000000     0.605000000    -0.764000000
H     1.187000000     1.285000000    -1.437000000
C    -0.224000000    -0.261000000    -1.261000000
H    -0.477000000    -0.162000000    -2.313000000
C    -0.937000000    -1.046000000    -0.399000000
H    -1.793000000    -1.623000000    -0.740000000
C    -0.755000000    -0.945000000     0.995000000
C    -1.678000000    -1.713000000     1.966000000
O    -1.713000000    -1.364000000     3.129000000
O    -2.409000000    -2.641000000     1.619000000
