14
-91.39794
C    -0.229000000     0.895000000     1.139000000
H    -0.146000000     1.578000000     1.980000000
C     0.578000000     1.165000000     0.079000000
H     1.064000000     2.134000000     0.006000000
C     0.765000000     0.192000000    -0.940000000
H     1.512000000     0.390000000    -1.667000000
C     0.005000000    -0.989000000    -0.930000000
H     0.202000000    -1.746000000    -1.685000000
C    -0.884000000    -1.152000000     0.088000000
H    -1.518000000    -2.034000000     0.071000000
C    -1.024000000    -0.230000000     1.128000000
C    -1.887000000    -0.592000000     2.327000000
O    -2.244000000     0.295000000     3.116000000
O    -2.059000000    -1.790000000     2.569000000
