14
-88.54059
C    -0.097000000    -1.502000000     0.177000000
H    -0.274000000    -2.568000000     0.289000000
C    -0.763000000    -0.560000000     0.991000000
H    -1.443000000    -0.894000000     1.772000000
C    -0.603000000     0.829000000     0.691000000
H    -1.245000000     1.535000000     1.228000000
C     0.206000000     1.256000000    -0.369000000
H     0.316000000     2.287000000    -0.695000000
C     0.951000000     0.293000000    -1.074000000
H     1.602000000     0.598000000    -1.890000000
C     0.775000000    -1.073000000    -0.773000000
C     1.624000000    -2.049000000    -1.587000000
O     2.686000000    -1.757000000    -2.065000000
O     1.105000000    -3.108000000    -1.913000000
