14
-83.94177
C    -0.834000000    -1.151000000    -0.066000000
H    -1.435000000    -2.044000000     0.081000000
C    -0.692000000    -0.301000000     0.986000000
H    -1.227000000    -0.459000000     1.919000000
C     0.013000000     0.879000000     0.920000000
H    -0.054000000     1.537000000     1.768000000
C     0.904000000     0.982000000    -0.182000000
H     1.670000000     1.753000000    -0.190000000
C     0.728000000     0.089000000    -1.249000000
H     1.282000000     0.245000000    -2.171000000
C    -0.162000000    -0.986000000    -1.256000000
C    -0.200000000    -2.043000000    -2.356000000
O    -1.046000000    -2.919000000    -2.344000000
O     0.391000000    -1.782000000    -3.422000000
