14
-86.10874
C    -1.019000000    -1.065000000    -0.016000000
H    -1.718000000    -1.849000000     0.263000000
C    -0.787000000    -0.132000000     1.017000000
H    -1.271000000    -0.279000000     1.980000000
C     0.104000000     0.866000000     0.834000000
H     0.228000000     1.564000000     1.686000000
C     0.766000000     1.003000000    -0.363000000
H     1.552000000     1.748000000    -0.457000000
C     0.685000000    -0.015000000    -1.347000000
H     1.353000000     0.022000000    -2.204000000
C    -0.265000000    -1.026000000    -1.177000000
C    -0.457000000    -2.133000000    -2.241000000
O    -1.026000000    -3.181000000    -1.943000000
O     0.287000000    -2.128000000    -3.217000000
