14
-86.57155
C    -0.592000000    -1.415000000    -0.086000000
H    -0.738000000    -2.491000000    -0.029000000
C    -0.361000000    -0.697000000     1.103000000
H    -0.525000000    -1.328000000     1.972000000
C     0.154000000     0.576000000     1.052000000
H     0.533000000     1.002000000     2.018000000
C     0.338000000     1.253000000    -0.165000000
H     0.755000000     2.257000000    -0.152000000
C     0.130000000     0.578000000    -1.370000000
H     0.332000000     1.098000000    -2.303000000
C    -0.314000000    -0.801000000    -1.324000000
C    -0.418000000    -1.466000000    -2.650000000
O    -1.280000000    -2.312000000    -2.782000000
O     0.299000000    -1.079000000    -3.528000000
