14
-88.66848
C     0.557000000    -1.071000000     0.879000000
H     0.927000000    -1.767000000     1.628000000
C    -0.291000000     0.014000000     1.345000000
H    -0.525000000     0.075000000     2.405000000
C    -0.672000000     0.940000000     0.381000000
H    -1.150000000     1.879000000     0.723000000
C    -0.392000000     0.739000000    -0.977000000
H    -0.641000000     1.529000000    -1.681000000
C     0.357000000    -0.317000000    -1.438000000
H     0.570000000    -0.473000000    -2.492000000
C     0.862000000    -1.264000000    -0.503000000
C     1.633000000    -2.492000000    -0.952000000
O     2.100000000    -3.286000000    -0.208000000
O     1.746000000    -2.637000000    -2.192000000
