14
-87.51282
C     0.183000000    -1.475000000     0.314000000
H     0.331000000    -2.470000000     0.724000000
C     0.241000000    -0.410000000     1.211000000
H     0.345000000    -0.523000000     2.287000000
C     0.177000000     0.948000000     0.812000000
H     0.185000000     1.712000000     1.603000000
C    -0.025000000     1.178000000    -0.534000000
H    -0.162000000     2.173000000    -0.949000000
C    -0.200000000     0.110000000    -1.506000000
H    -0.193000000     0.342000000    -2.568000000
C    -0.102000000    -1.233000000    -1.034000000
C    -0.377000000    -2.431000000    -1.898000000
O    -0.388000000    -3.530000000    -1.329000000
O    -0.307000000    -2.329000000    -3.105000000
