14
-76.63578
C    -1.258000000     0.663000000    -0.344000000
H    -2.129000000     1.222000000    -0.676000000
C     0.051000000     1.131000000    -0.544000000
H     0.120000000     2.133000000    -0.960000000
C     1.194000000     0.329000000    -0.239000000
H     2.165000000     0.678000000    -0.388000000
C     0.991000000    -0.941000000     0.207000000
H     1.902000000    -1.378000000     0.608000000
C    -0.267000000    -1.449000000     0.461000000
H    -0.358000000    -2.438000000     0.901000000
C    -1.410000000    -0.636000000     0.201000000
C    -2.869000000    -0.948000000     0.603000000
O    -3.756000000    -0.202000000     0.285000000
O    -3.174000000    -2.021000000     0.993000000
