14
-67.05672
C    -0.181000000     1.149000000    -0.871000000
H    -0.295000000     1.997000000    -1.542000000
C     1.045000000     0.583000000    -0.599000000
H     1.939000000     1.008000000    -1.049000000
C     1.079000000    -0.466000000     0.312000000
H     2.110000000    -0.811000000     0.618000000
C    -0.096000000    -0.984000000     0.917000000
H    -0.015000000    -1.772000000     1.662000000
C    -1.335000000    -0.490000000     0.514000000
H    -2.220000000    -0.994000000     0.894000000
C    -1.370000000     0.640000000    -0.288000000
C    -2.629000000     1.303000000    -0.672000000
O    -2.627000000     2.045000000    -1.545000000
O    -3.728000000     0.966000000    -0.321000000
