14
-89.64763
C    -1.141000000     0.897000000     0.218000000
H    -1.999000000     1.564000000     0.202000000
C    -0.016000000     1.166000000    -0.555000000
H    -0.001000000     2.149000000    -1.018000000
C     0.983000000     0.213000000    -0.691000000
H     1.847000000     0.327000000    -1.356000000
C     0.917000000    -0.945000000     0.060000000
H     1.681000000    -1.711000000    -0.043000000
C    -0.183000000    -1.147000000     0.880000000
H    -0.170000000    -2.082000000     1.434000000
C    -1.283000000    -0.332000000     0.862000000
C    -2.520000000    -0.628000000     1.674000000
O    -3.360000000     0.267000000     1.801000000
O    -2.771000000    -1.743000000     2.068000000
