14
-90.47647
C    -0.610000000     0.171000000     1.292000000
H    -1.028000000     0.277000000     2.290000000
C     0.117000000     1.126000000     0.608000000
H     0.347000000     2.114000000     1.000000000
C     0.583000000     0.878000000    -0.649000000
H     1.113000000     1.621000000    -1.272000000
C     0.368000000    -0.377000000    -1.184000000
H     0.736000000    -0.615000000    -2.179000000
C    -0.351000000    -1.382000000    -0.467000000
H    -0.422000000    -2.367000000    -0.922000000
C    -0.804000000    -1.098000000     0.780000000
C    -1.498000000    -2.218000000     1.585000000
O    -1.802000000    -2.054000000     2.753000000
O    -1.697000000    -3.300000000     1.046000000
