14
-80.08844
C    -0.572000000     1.381000000     0.224000000
H    -0.891000000     2.392000000     0.468000000
C     0.302000000     1.033000000    -0.779000000
H     0.611000000     1.833000000    -1.447000000
C     0.679000000    -0.288000000    -1.023000000
H     1.467000000    -0.505000000    -1.789000000
C     0.243000000    -1.250000000    -0.120000000
H     0.658000000    -2.253000000    -0.165000000
C    -0.616000000    -0.926000000     0.917000000
H    -0.810000000    -1.738000000     1.613000000
C    -1.010000000     0.407000000     1.160000000
C    -1.866000000     0.730000000     2.332000000
O    -1.985000000     1.916000000     2.604000000
O    -2.012000000    -0.079000000     3.181000000
