14
-90.41066
C    -0.639000000     0.993000000    -0.847000000
H    -0.938000000     1.867000000    -1.420000000
C     0.601000000     0.374000000    -1.170000000
H     1.180000000     0.702000000    -2.029000000
C     1.058000000    -0.582000000    -0.276000000
H     1.963000000    -1.088000000    -0.583000000
C     0.351000000    -0.953000000     0.826000000
H     0.791000000    -1.683000000     1.501000000
C    -0.902000000    -0.374000000     1.122000000
H    -1.405000000    -0.600000000     2.059000000
C    -1.381000000     0.677000000     0.321000000
C    -2.703000000     1.352000000     0.635000000
O    -3.216000000     1.949000000    -0.284000000
O    -3.158000000     1.406000000     1.775000000
