14
-83.59929
C    -0.763000000     1.109000000    -0.592000000
H    -1.185000000     1.936000000    -1.156000000
C     0.277000000     0.357000000    -1.191000000
H     0.651000000     0.670000000    -2.162000000
C     0.907000000    -0.672000000    -0.528000000
H     1.773000000    -1.083000000    -1.138000000
C     0.445000000    -1.032000000     0.703000000
H     0.905000000    -1.893000000     1.183000000
C    -0.585000000    -0.289000000     1.334000000
H    -0.918000000    -0.562000000     2.332000000
C    -1.221000000     0.731000000     0.653000000
C    -2.224000000     1.628000000     1.354000000
O    -2.619000000     2.622000000     0.791000000
O    -2.672000000     1.277000000     2.381000000
