14
-84.33456
C    -0.851000000     1.109000000    -0.542000000
H    -1.555000000     1.705000000    -1.116000000
C     0.243000000     0.552000000    -1.131000000
H     0.554000000     0.953000000    -2.093000000
C     0.926000000    -0.484000000    -0.526000000
H     1.779000000    -0.897000000    -1.163000000
C     0.689000000    -0.856000000     0.728000000
H     1.320000000    -1.608000000     1.197000000
C    -0.457000000    -0.321000000     1.378000000
H    -0.696000000    -0.777000000     2.335000000
C    -1.267000000     0.679000000     0.700000000
C    -2.499000000     1.193000000     1.278000000
O    -3.121000000     2.104000000     0.681000000
O    -2.799000000     0.657000000     2.379000000
