14
-83.78357
C    -0.743000000     1.065000000    -0.681000000
H    -1.255000000     1.871000000    -1.200000000
C     0.447000000     0.543000000    -1.106000000
H     0.935000000     0.865000000    -2.023000000
C     0.984000000    -0.510000000    -0.487000000
H     1.810000000    -1.031000000    -0.944000000
C     0.507000000    -0.910000000     0.771000000
H     0.973000000    -1.809000000     1.167000000
C    -0.641000000    -0.342000000     1.320000000
H    -1.119000000    -0.739000000     2.212000000
C    -1.280000000     0.726000000     0.597000000
C    -2.561000000     1.314000000     1.187000000
O    -3.165000000     2.070000000     0.515000000
O    -3.032000000     0.843000000     2.259000000
