14
-86.51608
C    -1.435000000     0.305000000     0.398000000
H    -2.440000000     0.543000000     0.737000000
C    -0.329000000     0.248000000     1.265000000
H    -0.558000000     0.511000000     2.294000000
C     0.968000000     0.045000000     0.770000000
H     1.733000000     0.031000000     1.505000000
C     1.128000000    -0.259000000    -0.547000000
H     2.108000000    -0.519000000    -0.937000000
C     0.049000000    -0.255000000    -1.411000000
H     0.296000000    -0.477000000    -2.446000000
C    -1.260000000     0.076000000    -0.989000000
C    -2.468000000    -0.035000000    -1.912000000
O    -3.563000000    -0.346000000    -1.570000000
O    -2.233000000     0.133000000    -3.105000000
