14
-75.61329
C    -0.741000000     1.243000000     0.190000000
H    -1.305000000     2.151000000     0.391000000
C     0.246000000     0.725000000     1.039000000
H     0.503000000     1.294000000     1.929000000
C     0.959000000    -0.394000000     0.645000000
H     1.580000000    -0.998000000     1.285000000
C     0.663000000    -1.075000000    -0.531000000
H     1.100000000    -2.022000000    -0.837000000
C    -0.367000000    -0.566000000    -1.351000000
H    -0.622000000    -1.193000000    -2.201000000
C    -1.158000000     0.514000000    -0.931000000
C    -2.345000000     1.050000000    -1.788000000
O    -3.005000000     2.030000000    -1.357000000
O    -2.997000000     0.277000000    -2.444000000
