14
-85.40676
C    -0.825000000     0.884000000    -0.846000000
H    -1.416000000     1.634000000    -1.364000000
C     0.421000000     1.228000000    -0.292000000
H     0.784000000     2.233000000    -0.490000000
C     1.110000000     0.330000000     0.491000000
H     2.048000000     0.513000000     0.986000000
C     0.553000000    -0.984000000     0.621000000
H     0.965000000    -1.702000000     1.325000000
C    -0.580000000    -1.373000000    -0.057000000
H    -0.877000000    -2.409000000     0.089000000
C    -1.343000000    -0.433000000    -0.732000000
C    -2.760000000    -0.753000000    -1.270000000
O    -3.439000000     0.079000000    -1.803000000
O    -3.316000000    -1.872000000    -1.145000000
