14
-89.98542
C     0.905000000    -0.509000000     1.072000000
H     1.481000000    -1.136000000     1.747000000
C    -0.451000000    -0.438000000     1.233000000
H    -0.947000000    -0.968000000     2.041000000
C    -1.210000000     0.087000000     0.205000000
H    -2.257000000     0.089000000     0.296000000
C    -0.589000000     0.707000000    -0.849000000
H    -1.185000000     1.164000000    -1.635000000
C     0.761000000     0.630000000    -1.029000000
H     1.311000000     1.099000000    -1.840000000
C     1.559000000     0.050000000    -0.020000000
C     3.035000000    -0.151000000    -0.269000000
O     3.500000000     0.011000000    -1.393000000
O     3.711000000    -0.513000000     0.673000000
