14
-90.79430
C    -1.319000000     0.509000000     0.413000000
H    -2.291000000     0.772000000     0.823000000
C    -0.375000000     0.076000000     1.302000000
H    -0.455000000     0.038000000     2.386000000
C     0.831000000    -0.415000000     0.775000000
H     1.661000000    -0.727000000     1.462000000
C     1.043000000    -0.500000000    -0.620000000
H     2.007000000    -0.856000000    -0.974000000
C     0.070000000    -0.108000000    -1.550000000
H     0.338000000    -0.115000000    -2.603000000
C    -1.171000000     0.461000000    -1.022000000
C    -2.196000000     1.028000000    -1.994000000
O    -3.068000000     1.793000000    -1.537000000
O    -2.136000000     0.571000000    -3.148000000
