14
-87.32144
C    -1.322000000     0.624000000    -0.092000000
H    -2.289000000     1.117000000    -0.034000000
C    -0.418000000     0.743000000     0.978000000
H    -0.555000000     1.536000000     1.709000000
C     0.786000000     0.088000000     0.938000000
H     1.484000000     0.374000000     1.718000000
C     1.006000000    -0.919000000    -0.066000000
H     1.930000000    -1.488000000    -0.128000000
C     0.107000000    -0.992000000    -1.146000000
H     0.258000000    -1.679000000    -1.975000000
C    -1.067000000    -0.208000000    -1.132000000
C    -1.968000000    -0.208000000    -2.311000000
O    -3.102000000     0.209000000    -2.226000000
O    -1.466000000    -0.495000000    -3.376000000
