14
-88.07432
C    -0.982000000     0.991000000     0.313000000
H    -1.535000000     1.849000000     0.687000000
C    -0.101000000     0.454000000     1.217000000
H    -0.054000000     1.001000000     2.155000000
C     0.767000000    -0.537000000     0.802000000
H     1.399000000    -0.987000000     1.563000000
C     0.785000000    -0.925000000    -0.549000000
H     1.479000000    -1.684000000    -0.901000000
C    -0.086000000    -0.372000000    -1.460000000
H     0.052000000    -0.533000000    -2.526000000
C    -0.991000000     0.607000000    -1.050000000
C    -2.053000000     1.115000000    -1.948000000
O    -2.834000000     1.950000000    -1.484000000
O    -2.050000000     0.748000000    -3.090000000
