14
-89.00325
C    -1.195000000     0.146000000     0.873000000
H    -2.074000000     0.106000000     1.511000000
C    -0.409000000    -0.993000000     0.712000000
H    -0.668000000    -1.936000000     1.187000000
C     0.652000000    -1.001000000    -0.187000000
H     1.280000000    -1.880000000    -0.425000000
C     0.986000000     0.151000000    -0.857000000
H     1.845000000    -0.006000000    -1.504000000
C     0.342000000     1.334000000    -0.616000000
H     0.709000000     2.233000000    -1.106000000
C    -0.715000000     1.320000000     0.275000000
C    -1.507000000     2.615000000     0.583000000
O    -1.990000000     2.769000000     1.693000000
O    -1.648000000     3.504000000    -0.258000000
