14
-86.87810
C    -0.988000000     0.292000000     1.087000000
H    -1.525000000     0.369000000     2.029000000
C    -0.284000000    -0.906000000     0.933000000
H    -0.307000000    -1.704000000     1.671000000
C     0.619000000    -1.055000000    -0.180000000
H     1.157000000    -1.956000000    -0.157000000
C     0.713000000    -0.047000000    -1.113000000
H     1.447000000    -0.093000000    -1.913000000
C    -0.065000000     1.112000000    -0.992000000
H    -0.022000000     1.848000000    -1.791000000
C    -0.879000000     1.302000000     0.166000000
C    -1.758000000     2.522000000     0.296000000
O    -2.401000000     2.705000000     1.340000000
O    -1.764000000     3.311000000    -0.576000000
