14
-88.39353
C     0.084000000     0.112000000     1.453000000
H     0.243000000    -0.022000000     2.519000000
C    -0.841000000    -0.667000000     0.823000000
H    -1.597000000    -1.230000000     1.365000000
C    -0.893000000    -0.596000000    -0.593000000
H    -1.606000000    -1.227000000    -1.180000000
C     0.110000000     0.017000000    -1.320000000
H     0.122000000    -0.121000000    -2.398000000
C     1.102000000     0.759000000    -0.621000000
H     1.946000000     1.146000000    -1.185000000
C     1.039000000     0.889000000     0.775000000
C     2.069000000     1.620000000     1.547000000
O     2.850000000     2.342000000     0.937000000
O     2.198000000     1.539000000     2.784000000
