14
-86.40918
C    -0.829000000     0.478000000    -1.156000000
H    -1.387000000     0.770000000    -2.042000000
C    -0.906000000    -0.839000000    -0.658000000
H    -1.437000000    -1.657000000    -1.140000000
C    -0.061000000    -1.169000000     0.403000000
H    -0.152000000    -2.226000000     0.744000000
C     0.846000000    -0.266000000     0.913000000
H     1.465000000    -0.682000000     1.704000000
C     0.978000000     1.057000000     0.408000000
H     1.467000000     1.838000000     0.984000000
C     0.070000000     1.440000000    -0.583000000
C    -0.074000000     2.925000000    -1.022000000
O    -0.476000000     3.169000000    -2.131000000
O     0.255000000     3.871000000    -0.271000000
