14
-82.10689
C    -0.835000000     0.205000000    -1.230000000
H    -1.458000000     0.336000000    -2.111000000
C    -0.309000000    -1.047000000    -0.937000000
H    -0.419000000    -1.964000000    -1.510000000
C     0.528000000    -1.065000000     0.194000000
H     0.913000000    -2.053000000     0.479000000
C     0.715000000     0.022000000     1.095000000
H     1.296000000    -0.135000000     2.001000000
C     0.053000000     1.220000000     0.812000000
H     0.112000000     1.993000000     1.574000000
C    -0.735000000     1.326000000    -0.359000000
C    -1.396000000     2.692000000    -0.677000000
O    -1.810000000     2.939000000    -1.777000000
O    -1.663000000     3.437000000     0.205000000
