14
-83.21304
C    -0.059000000     1.213000000    -0.722000000
H    -0.002000000     2.057000000    -1.404000000
C    -0.058000000    -0.027000000    -1.298000000
H    -0.356000000     0.083000000    -2.338000000
C     0.137000000    -1.156000000    -0.495000000
H     0.021000000    -2.126000000    -0.877000000
C     0.155000000    -1.002000000     0.877000000
H     0.184000000    -1.874000000     1.525000000
C     0.074000000     0.248000000     1.462000000
H     0.060000000     0.311000000     2.547000000
C     0.103000000     1.425000000     0.669000000
C     0.123000000     2.823000000     1.284000000
O     0.318000000     3.820000000     0.608000000
O    -0.273000000     3.007000000     2.457000000
