14
-85.29961
C    -0.116000000     1.419000000    -0.487000000
H    -0.217000000     2.380000000    -0.985000000
C     0.572000000     0.397000000    -1.117000000
H     1.015000000     0.544000000    -2.098000000
C     0.510000000    -0.883000000    -0.625000000
H     0.811000000    -1.789000000    -1.191000000
C    -0.055000000    -1.142000000     0.607000000
H    -0.033000000    -2.159000000     0.990000000
C    -0.597000000    -0.082000000     1.326000000
H    -0.953000000    -0.183000000     2.348000000
C    -0.681000000     1.191000000     0.754000000
C    -1.374000000     2.317000000     1.429000000
O    -1.748000000     3.265000000     0.825000000
O    -1.564000000     2.254000000     2.624000000
