14
-84.12723
C     0.141000000    -0.378000000     1.499000000
H     0.201000000    -0.782000000     2.506000000
C    -0.921000000    -0.724000000     0.653000000
H    -1.598000000    -1.466000000     1.068000000
C    -1.044000000    -0.272000000    -0.646000000
H    -1.914000000    -0.561000000    -1.221000000
C    -0.095000000     0.665000000    -1.080000000
H    -0.139000000     1.108000000    -2.072000000
C     1.010000000     0.939000000    -0.341000000
H     1.819000000     1.439000000    -0.866000000
C     1.164000000     0.407000000     0.994000000
C     2.481000000     0.688000000     1.681000000
O     3.256000000     1.569000000     1.240000000
O     2.966000000     0.079000000     2.647000000
