14
-76.91820
C    -1.284000000     0.791000000    -0.393000000
H    -2.136000000     1.396000000    -0.695000000
C     0.075000000     1.101000000    -0.790000000
H     0.360000000     1.988000000    -1.351000000
C     1.141000000     0.312000000    -0.352000000
H     2.196000000     0.658000000    -0.495000000
C     0.875000000    -0.856000000     0.293000000
H     1.721000000    -1.480000000     0.570000000
C    -0.403000000    -1.227000000     0.642000000
H    -0.598000000    -2.118000000     1.233000000
C    -1.482000000    -0.343000000     0.431000000
C    -2.838000000    -0.659000000     1.049000000
O    -3.769000000     0.076000000     0.772000000
O    -2.925000000    -1.239000000     2.082000000
