14
-86.60366
C    -0.719000000     1.224000000    -0.085000000
H    -1.101000000     2.214000000    -0.320000000
C     0.389000000     0.897000000    -0.876000000
H     0.874000000     1.673000000    -1.463000000
C     1.040000000    -0.262000000    -0.634000000
H     1.943000000    -0.462000000    -1.186000000
C     0.437000000    -1.213000000     0.197000000
H     0.859000000    -2.207000000     0.320000000
C    -0.774000000    -0.987000000     0.807000000
H    -1.143000000    -1.695000000     1.544000000
C    -1.420000000     0.306000000     0.695000000
C    -2.649000000     0.638000000     1.462000000
O    -3.323000000     1.662000000     1.113000000
O    -3.106000000    -0.132000000     2.304000000
