14
-81.91099
C    -0.812000000     1.176000000    -0.124000000
H    -1.327000000     2.075000000    -0.455000000
C     0.250000000     0.834000000    -0.940000000
H     0.522000000     1.457000000    -1.787000000
C     0.890000000    -0.358000000    -0.711000000
H     1.731000000    -0.496000000    -1.311000000
C     0.519000000    -1.230000000     0.332000000
H     1.149000000    -2.113000000     0.400000000
C    -0.558000000    -0.849000000     1.084000000
H    -0.883000000    -1.509000000     1.884000000
C    -1.200000000     0.401000000     0.981000000
C    -2.431000000     0.836000000     1.743000000
O    -2.580000000     2.037000000     1.869000000
O    -2.955000000     0.021000000     2.438000000
