14
-75.21193
C    -0.461000000     1.241000000    -0.682000000
H    -0.602000000     2.126000000    -1.297000000
C     0.583000000     0.336000000    -1.028000000
H     1.291000000     0.550000000    -1.825000000
C     0.841000000    -0.869000000    -0.381000000
H     1.789000000    -1.430000000    -0.557000000
C     0.036000000    -1.087000000     0.677000000
H     0.272000000    -1.948000000     1.296000000
C    -1.006000000    -0.189000000     1.051000000
H    -1.559000000    -0.413000000     1.960000000
C    -1.253000000     0.996000000     0.370000000
C    -2.199000000     1.993000000     0.850000000
O    -2.250000000     3.023000000     0.230000000
O    -2.969000000     1.753000000     1.716000000
