14
-73.22352
C    -1.194000000     0.703000000    -0.335000000
H    -2.089000000     0.964000000    -0.894000000
C    -0.038000000     0.801000000    -1.033000000
H    -0.039000000     1.175000000    -2.054000000
C     1.108000000     0.126000000    -0.563000000
H     1.961000000    -0.010000000    -1.172000000
C     0.969000000    -0.665000000     0.564000000
H     1.804000000    -1.252000000     0.938000000
C    -0.176000000    -0.563000000     1.355000000
H    -0.231000000    -1.124000000     2.285000000
C    -1.327000000     0.038000000     0.910000000
C    -2.710000000    -0.085000000     1.558000000
O    -3.670000000     0.392000000     1.104000000
O    -2.798000000    -0.710000000     2.561000000
