14
-88.76031
C    -0.990000000     1.009000000    -0.456000000
H    -1.578000000     1.838000000    -0.841000000
C     0.094000000     0.554000000    -1.213000000
H     0.293000000     1.077000000    -2.145000000
C     0.949000000    -0.441000000    -0.724000000
H     1.849000000    -0.694000000    -1.149000000
C     0.594000000    -1.134000000     0.454000000
H     1.138000000    -2.004000000     0.812000000
C    -0.571000000    -0.725000000     1.160000000
H    -0.680000000    -1.195000000     2.134000000
C    -1.287000000     0.419000000     0.813000000
C    -2.263000000     1.145000000     1.780000000
O    -2.737000000     2.294000000     1.511000000
O    -2.563000000     0.630000000     2.853000000
