14
-79.56044
C    -0.984000000     1.029000000    -0.422000000
H    -1.611000000     1.675000000    -1.032000000
C     0.293000000     0.900000000    -0.956000000
H     0.737000000     1.332000000    -1.849000000
C     1.087000000    -0.154000000    -0.484000000
H     2.055000000    -0.353000000    -1.062000000
C     0.752000000    -0.854000000     0.680000000
H     1.489000000    -1.533000000     1.099000000
C    -0.539000000    -0.692000000     1.294000000
H    -0.819000000    -1.215000000     2.205000000
C    -1.462000000     0.221000000     0.660000000
C    -2.817000000     0.453000000     1.245000000
O    -3.594000000     1.277000000     0.791000000
O    -3.102000000    -0.143000000     2.237000000
