14
-84.40040
C    -0.195000000     1.490000000    -0.202000000
H    -0.298000000     2.525000000    -0.518000000
C     0.467000000     0.624000000    -1.043000000
H     0.983000000     0.978000000    -1.931000000
C     0.609000000    -0.689000000    -0.778000000
H     1.187000000    -1.354000000    -1.480000000
C     0.181000000    -1.244000000     0.414000000
H     0.215000000    -2.318000000     0.580000000
C    -0.512000000    -0.405000000     1.325000000
H    -0.821000000    -0.669000000     2.334000000
C    -0.843000000     0.948000000     0.946000000
C    -1.568000000     1.846000000     1.876000000
O    -2.049000000     2.918000000     1.461000000
O    -1.800000000     1.520000000     3.018000000
