14
-83.42330
C     1.242000000     0.576000000    -0.544000000
H     2.161000000     0.858000000    -1.052000000
C     0.439000000    -0.325000000    -1.260000000
H     0.666000000    -0.594000000    -2.288000000
C    -0.604000000    -0.859000000    -0.633000000
H    -1.225000000    -1.599000000    -1.188000000
C    -0.885000000    -0.540000000     0.724000000
H    -1.806000000    -0.913000000     1.163000000
C    -0.167000000     0.454000000     1.410000000
H    -0.531000000     0.544000000     2.430000000
C     0.911000000     1.053000000     0.709000000
C     1.664000000     2.205000000     1.372000000
O     2.597000000     2.743000000     0.796000000
O     1.381000000     2.605000000     2.493000000
