14
-84.57808
C     0.385000000     1.400000000     0.120000000
H     0.964000000     2.310000000     0.258000000
C     0.963000000     0.485000000    -0.683000000
H     1.815000000     0.764000000    -1.297000000
C     0.502000000    -0.886000000    -0.759000000
H     1.012000000    -1.521000000    -1.453000000
C    -0.513000000    -1.236000000     0.134000000
H    -0.879000000    -2.258000000     0.074000000
C    -1.062000000    -0.335000000     1.026000000
H    -1.949000000    -0.566000000     1.609000000
C    -0.654000000     1.040000000     0.988000000
C    -1.292000000     2.076000000     1.858000000
O    -0.908000000     3.226000000     1.769000000
O    -2.195000000     1.823000000     2.638000000
