14
-79.96878
C     0.248000000     0.674000000    -1.300000000
H     0.500000000     0.911000000    -2.330000000
C    -0.096000000    -0.699000000    -1.118000000
H    -0.080000000    -1.315000000    -2.013000000
C    -0.405000000    -1.173000000     0.163000000
H    -0.681000000    -2.250000000     0.191000000
C    -0.183000000    -0.374000000     1.277000000
H    -0.379000000    -0.696000000     2.296000000
C     0.239000000     0.974000000     1.070000000
H     0.573000000     1.555000000     1.925000000
C     0.426000000     1.539000000    -0.228000000
C     0.905000000     2.973000000    -0.391000000
O     1.044000000     3.376000000    -1.509000000
O     0.623000000     3.752000000     0.501000000
