14
-89.16811
C    -0.036000000    -0.750000000     1.308000000
H    -0.169000000    -1.215000000     2.281000000
C    -0.949000000    -0.961000000     0.243000000
H    -1.674000000    -1.762000000     0.363000000
C    -0.741000000    -0.235000000    -0.927000000
H    -1.401000000    -0.488000000    -1.826000000
C     0.261000000     0.742000000    -1.057000000
H     0.252000000     1.369000000    -1.945000000
C     1.096000000     0.961000000    -0.002000000
H     1.851000000     1.739000000    -0.076000000
C     1.013000000     0.209000000     1.161000000
C     1.979000000     0.418000000     2.352000000
O     3.010000000     1.085000000     2.208000000
O     1.753000000    -0.103000000     3.399000000
