14
-89.15854
C    -0.907000000    -1.056000000     0.425000000
H    -1.564000000    -1.891000000     0.652000000
C    -1.302000000    -0.018000000    -0.437000000
H    -2.344000000     0.029000000    -0.745000000
C    -0.373000000     0.970000000    -0.677000000
H    -0.555000000     1.940000000    -1.164000000
C     0.951000000     0.884000000    -0.190000000
H     1.710000000     1.589000000    -0.521000000
C     1.382000000    -0.201000000     0.535000000
H     2.438000000    -0.260000000     0.787000000
C     0.425000000    -1.183000000     0.947000000
C     0.830000000    -2.309000000     1.920000000
O     1.997000000    -2.647000000     2.080000000
O    -0.062000000    -2.875000000     2.535000000
