14
-88.48753
C    -1.240000000     0.780000000     0.374000000
H    -2.103000000     1.427000000     0.510000000
C    -0.255000000     1.222000000    -0.509000000
H    -0.216000000     2.157000000    -1.062000000
C     0.962000000     0.430000000    -0.620000000
H     1.698000000     0.751000000    -1.279000000
C     1.046000000    -0.808000000    -0.029000000
H     1.937000000    -1.417000000    -0.160000000
C    -0.044000000    -1.306000000     0.664000000
H     0.052000000    -2.246000000     1.201000000
C    -1.153000000    -0.484000000     0.907000000
C    -2.416000000    -1.086000000     1.621000000
O    -2.369000000    -2.175000000     2.189000000
O    -3.443000000    -0.484000000     1.449000000
