14
-83.77026
C    -1.089000000     0.995000000     0.361000000
H    -1.749000000     1.783000000     0.713000000
C     0.050000000     1.268000000    -0.471000000
H     0.228000000     2.262000000    -0.873000000
C     0.947000000     0.203000000    -0.741000000
H     1.784000000     0.483000000    -1.440000000
C     0.686000000    -1.055000000    -0.271000000
H     1.468000000    -1.762000000    -0.534000000
C    -0.421000000    -1.325000000     0.548000000
H    -0.458000000    -2.333000000     0.954000000
C    -1.233000000    -0.298000000     0.898000000
C    -2.302000000    -0.674000000     1.929000000
O    -2.205000000    -1.624000000     2.624000000
O    -3.226000000     0.111000000     2.058000000
