14
-86.59303
C    -0.685000000     0.952000000    -0.983000000
H    -1.199000000     1.670000000    -1.616000000
C     0.167000000     1.326000000     0.040000000
H     0.447000000     2.373000000     0.118000000
C     0.799000000     0.413000000     0.839000000
H     1.476000000     0.654000000     1.719000000
C     0.496000000    -0.939000000     0.715000000
H     1.042000000    -1.662000000     1.316000000
C    -0.401000000    -1.401000000    -0.326000000
H    -0.517000000    -2.479000000    -0.394000000
C    -1.048000000    -0.456000000    -1.091000000
C    -2.037000000    -0.897000000    -2.143000000
O    -2.237000000    -2.072000000    -2.262000000
O    -2.550000000    -0.060000000    -2.839000000
