14
-81.49864
C    -0.607000000     1.224000000    -0.729000000
H    -0.834000000     2.116000000    -1.307000000
C     0.674000000     1.111000000    -0.157000000
H     1.393000000     1.891000000    -0.394000000
C     1.130000000    -0.037000000     0.492000000
H     2.049000000     0.075000000     0.938000000
C     0.290000000    -1.148000000     0.770000000
H     0.760000000    -2.029000000     1.200000000
C    -1.030000000    -1.033000000     0.313000000
H    -1.779000000    -1.810000000     0.440000000
C    -1.523000000     0.152000000    -0.452000000
C    -2.923000000     0.100000000    -1.084000000
O    -3.476000000    -0.975000000    -1.235000000
O    -3.496000000     1.117000000    -1.385000000
