14
-82.84628
C     0.116000000     0.379000000    -1.417000000
H     0.241000000     0.732000000    -2.437000000
C     1.006000000     0.870000000    -0.453000000
H     1.757000000     1.611000000    -0.715000000
C     0.792000000     0.393000000     0.892000000
H     1.443000000     0.773000000     1.683000000
C    -0.271000000    -0.414000000     1.155000000
H    -0.364000000    -0.895000000     2.125000000
C    -1.182000000    -0.787000000     0.198000000
H    -1.934000000    -1.496000000     0.533000000
C    -0.993000000    -0.419000000    -1.132000000
C    -2.119000000    -0.738000000    -2.133000000
O    -3.111000000    -1.278000000    -1.803000000
O    -2.025000000    -0.345000000    -3.290000000
